Version 4
SHEET 1 2720 680
WIRE 64 64 64 48
WIRE 400 64 400 48
WIRE 736 64 736 48
WIRE 1072 64 1072 48
WIRE 1424 64 1424 48
WIRE 1760 64 1760 48
WIRE 2096 64 2096 48
WIRE 2432 64 2432 48
WIRE 64 160 64 144
WIRE 400 160 400 144
WIRE 736 160 736 144
WIRE 1072 160 1072 144
WIRE 1424 160 1424 144
WIRE 1760 160 1760 144
WIRE 2096 160 2096 144
WIRE 2432 160 2432 144
FLAG 64 48 VL0
IOPIN 64 48 Out
FLAG 64 160 0
FLAG 400 48 VL1
IOPIN 400 48 Out
FLAG 400 160 0
FLAG 736 48 VL2
IOPIN 736 48 Out
FLAG 736 160 0
FLAG 1072 48 VL3
IOPIN 1072 48 Out
FLAG 1072 160 0
FLAG 1424 48 VL4
IOPIN 1424 48 Out
FLAG 1424 160 0
FLAG 1760 48 VL5
IOPIN 1760 48 Out
FLAG 1760 160 0
FLAG 2096 48 VL6
IOPIN 2096 48 Out
FLAG 2096 160 0
FLAG 2432 48 VL7
IOPIN 2432 48 Out
FLAG 2432 160 0
SYMBOL voltage 64 48 R0
WINDOW 123 0 0 Left 2
WINDOW 39 0 0 Left 2
SYMATTR InstName V0
SYMATTR Value PWL( 0.000 0 0.005 0 0.015 3 0.794 3 0.804 0 0.939 0 0.944 0 0.954 3 1.760 3 1.770 0 2.027 0 2.039 0 2.049 3 2.903 3 2.913 0 3.204 0 3.216 0 3.226 3 4.009 3 4.019 0 4.231 0 4.241 0)
SYMBOL voltage 400 48 R0
WINDOW 123 0 0 Left 2
WINDOW 39 0 0 Left 2
WINDOW 3 28 130 Left 2
SYMATTR InstName V1
SYMATTR Value PWL( 0.000 0 0.005 0 0.015 0 0.794 0 0.804 0 0.939 0 0.944 0 0.954 0 1.760 0 1.770 0 2.027 0 2.039 0 2.049 0 2.903 0 2.913 0 3.204 0 3.216 0 3.226 0 4.009 0 4.019 0 4.231 0 4.241 0)
SYMBOL voltage 736 48 R0
WINDOW 123 0 0 Left 2
WINDOW 39 0 0 Left 2
WINDOW 3 30 173 Left 2
SYMATTR InstName V2
SYMATTR Value PWL( 0.000 0 0.005 0 0.015 3 0.794 3 0.804 0 0.939 0 0.944 0 0.954 3 1.760 3 1.770 0 2.027 0 2.039 0 2.049 3 2.903 3 2.913 0 3.204 0 3.216 0 3.226 3 4.009 3 4.019 0 4.231 0 4.241 0)
SYMBOL voltage 1072 48 R0
WINDOW 123 0 0 Left 2
WINDOW 39 0 0 Left 2
WINDOW 3 26 238 Left 2
SYMATTR InstName V3
SYMATTR Value PWL( 0.000 0 0.005 0 0.015 0 0.794 0 0.804 0 0.939 0 0.944 0 0.954 0 1.760 0 1.770 0 2.027 0 2.039 0 2.049 0 2.903 0 2.913 0 3.204 0 3.216 0 3.226 0 4.009 0 4.019 0 4.231 0 4.241 0)
SYMBOL voltage 1424 48 R0
WINDOW 123 0 0 Left 2
WINDOW 39 0 0 Left 2
WINDOW 3 19 292 Left 2
SYMATTR InstName V4
SYMATTR Value PWL( 0.000 0 0.005 0 0.015 3 0.794 3 0.804 0 0.939 0 0.944 0 0.954 3 1.760 3 1.770 0 2.027 0 2.039 0 2.049 3 2.903 3 2.913 0 3.204 0 3.216 0 3.226 3 4.009 3 4.019 0 4.231 0 4.241 0)
SYMBOL voltage 1760 48 R0
WINDOW 123 0 0 Left 2
WINDOW 39 0 0 Left 2
WINDOW 3 46 344 Left 2
SYMATTR InstName V5
SYMATTR Value PWL( 0.000 0 0.005 0 0.015 0 0.794 0 0.804 0 0.939 0 0.944 0 0.954 0 1.760 0 1.770 0 2.027 0 2.039 0 2.049 0 2.903 0 2.913 0 3.204 0 3.216 0 3.226 0 4.009 0 4.019 0 4.231 0 4.241 0)
SYMBOL voltage 2096 48 R0
WINDOW 123 0 0 Left 2
WINDOW 39 0 0 Left 2
WINDOW 3 41 407 Left 2
SYMATTR InstName V6
SYMATTR Value PWL( 0.000 0 0.005 0 0.015 3 0.794 3 0.804 0 0.939 0 0.944 0 0.954 3 1.760 3 1.770 0 2.027 0 2.039 0 2.049 3 2.903 3 2.913 0 3.204 0 3.216 0 3.226 3 4.009 3 4.019 0 4.231 0 4.241 0)
SYMBOL voltage 2432 48 R0
WINDOW 123 0 0 Left 2
WINDOW 39 0 0 Left 2
WINDOW 3 39 495 Left 2
SYMATTR InstName V7
SYMATTR Value PWL( 0.000 0 0.005 0 0.015 0 0.794 0 0.804 0 0.939 0 0.944 0 0.954 0 1.760 0 1.770 0 2.027 0 2.039 0 2.049 0 2.903 0 2.913 0 3.204 0 3.216 0 3.226 0 4.009 0 4.019 0 4.231 0 4.241 0)
