Version 4
SHEET 1 964 680
WIRE 640 -208 -112 -208
WIRE 384 -144 224 -144
WIRE 640 -144 640 -208
WIRE 640 -144 448 -144
WIRE 0 -48 -32 -48
WIRE -112 -16 -112 -208
WIRE 352 -16 320 -16
WIRE 512 -16 480 -16
WIRE 224 32 224 -144
WIRE 272 32 224 32
WIRE 320 32 320 -16
WIRE 320 32 272 32
WIRE -112 48 -128 48
WIRE -96 48 -112 48
WIRE -32 48 -32 -48
WIRE 48 48 48 32
WIRE 112 48 48 48
WIRE 224 48 224 32
WIRE 224 48 192 48
WIRE 48 80 48 48
WIRE 400 80 400 64
WIRE 480 80 480 -16
WIRE 480 80 400 80
WIRE 560 80 560 64
WIRE 640 80 640 -144
WIRE 640 80 560 80
WIRE 224 96 224 48
WIRE 400 112 400 80
WIRE 560 112 560 80
WIRE -32 160 -32 48
WIRE 0 160 -32 160
WIRE 320 192 320 32
WIRE 352 192 320 192
WIRE 480 192 480 80
WIRE 512 192 480 192
WIRE 272 208 272 32
WIRE 272 208 112 208
WIRE 640 288 640 80
WIRE 640 288 320 288
WIRE 272 304 192 304
WIRE 272 432 272 304
FLAG 768 464 0
FLAG 896 464 0
FLAG 768 384 V+
FLAG 896 384 V-
FLAG 224 160 0
FLAG 400 -32 V+
FLAG 560 -32 V+
FLAG 560 208 0
FLAG 400 208 0
FLAG 272 432 0
FLAG 64 288 Inhibit
FLAG -128 48 Vin
FLAG 704 80 Vout
FLAG 48 -64 V+
FLAG 48 176 0
SYMBOL res 208 32 R90
WINDOW 0 0 56 VBottom 2
WINDOW 3 32 56 VTop 2
SYMATTR InstName R1
SYMATTR Value 100K
SYMBOL cap 208 96 R0
SYMATTR InstName C1
SYMATTR Value 10n
SYMBOL cap 448 -160 R90
WINDOW 0 0 32 VBottom 2
WINDOW 3 32 32 VTop 2
SYMATTR InstName C2
SYMATTR Value 50n
SYMBOL voltage 768 368 R0
WINDOW 123 0 0 Left 2
WINDOW 39 0 0 Left 2
SYMATTR InstName V2
SYMATTR Value 2.5
SYMBOL voltage 896 368 R0
WINDOW 123 0 0 Left 2
WINDOW 39 0 0 Left 2
SYMATTR InstName V3
SYMATTR Value -2.5
SYMBOL nmos 320 208 M0
SYMATTR InstName M3
SYMBOL nmos 352 112 R0
SYMATTR InstName M1
SYMBOL nmos 512 112 R0
SYMATTR InstName M2
SYMBOL pmos 352 64 M180
SYMATTR InstName M5
SYMBOL pmos 512 64 M180
SYMATTR InstName M6
SYMBOL diode 640 96 R270
WINDOW 0 32 32 VTop 2
WINDOW 3 0 32 VBottom 2
SYMATTR InstName D5
SYMBOL nmos 64 208 R0
WINDOW 3 -90 51 Left 2
SYMATTR InstName M18
SYMBOL res 208 288 R90
WINDOW 0 0 56 VBottom 2
WINDOW 3 32 56 VTop 2
SYMATTR InstName R3
SYMATTR Value R = Rinhibition
SYMBOL nmos 0 80 R0
SYMATTR InstName M4
SYMBOL pmos 0 32 M180
SYMATTR InstName M7
SYMBOL diode -96 64 R270
WINDOW 0 32 32 VTop 2
WINDOW 3 0 32 VBottom 2
SYMATTR InstName D1
SYMBOL diode -128 -16 R0
SYMATTR InstName D2
