Version 4
SHEET 1 2224 692
WIRE 736 -800 720 -800
WIRE 832 -800 816 -800
WIRE 832 -736 832 -800
WIRE 832 -736 816 -736
WIRE 880 -736 832 -736
WIRE 1024 -736 960 -736
WIRE 1104 -736 1088 -736
WIRE 720 -720 720 -800
WIRE 720 -720 672 -720
WIRE 752 -720 720 -720
WIRE 832 -704 816 -704
WIRE 832 -688 832 -704
WIRE 640 -624 480 -624
WIRE 672 -624 672 -656
WIRE 672 -624 640 -624
WIRE 720 -624 672 -624
WIRE 848 -624 816 -624
WIRE 960 -608 912 -608
WIRE 1056 -608 960 -608
WIRE 1120 -608 1088 -608
WIRE 784 -592 784 -624
WIRE 848 -592 784 -592
WIRE 1280 -592 1184 -592
WIRE 1056 -576 1056 -608
WIRE 1120 -576 1056 -576
WIRE 816 -528 816 -624
WIRE 880 -528 816 -528
WIRE 960 -528 960 -608
WIRE 1088 -512 1088 -608
WIRE 1152 -512 1088 -512
WIRE 1280 -512 1280 -592
WIRE 1280 -512 1232 -512
WIRE 1280 -480 1280 -512
WIRE 1584 -432 1552 -432
WIRE 1712 -432 1664 -432
WIRE 1824 -416 1792 -416
WIRE 1952 -416 1904 -416
WIRE 1280 -368 1280 -416
WIRE 1408 -368 1280 -368
WIRE 1520 -368 1488 -368
WIRE 1952 -336 1952 -416
WIRE 2016 -336 1952 -336
WIRE 1520 -320 1520 -368
WIRE 1520 -320 1488 -320
WIRE 1552 -320 1552 -432
WIRE 1552 -320 1520 -320
WIRE 1600 -320 1552 -320
WIRE 1712 -304 1712 -432
WIRE 1712 -304 1664 -304
WIRE 1792 -304 1792 -416
WIRE 1840 -304 1792 -304
WIRE 1952 -288 1952 -336
WIRE 1952 -288 1904 -288
WIRE 1312 -256 1264 -256
WIRE 1408 -256 1376 -256
WIRE 1488 -256 1488 -320
FLAG 784 -688 V-
FLAG 784 -752 V+
FLAG 832 -688 0
FLAG 880 -576 V-
FLAG 880 -640 V+
FLAG 736 -528 0
FLAG 640 -544 0
FLAG 1152 -560 V-
FLAG 1152 -624 V+
FLAG 1008 -512 0
FLAG 480 -624 INOUT
FLAG 2016 -336 NeuronIN
FLAG 1104 -736 NeuronOUT
FLAG 864 -320 0
FLAG 960 -320 0
FLAG 864 -400 V+
FLAG 960 -400 V-
FLAG 1600 -288 0
FLAG 1840 -272 0
FLAG 1264 -256 Label
IOPIN 1264 -256 In
FLAG 1536 -64 0
FLAG 1632 -64 0
FLAG 1536 -144 V12+
FLAG 1632 -144 V12-
FLAG 1632 -336 V12+
FLAG 1872 -320 V12+
FLAG 1632 -272 V12-
FLAG 1872 -256 V12-
SYMBOL Opamps\\UniversalOpamp2 784 -720 M0
SYMATTR InstName U7
SYMBOL res 720 -816 M90
WINDOW 0 0 56 VBottom 2
WINDOW 3 -16 22 VTop 2
SYMATTR InstName R17
SYMATTR Value 50k
SYMBOL res 864 -752 M90
WINDOW 0 0 56 VBottom 2
WINDOW 3 32 56 VTop 2
SYMATTR InstName R18
SYMATTR Value 1k
SYMBOL Opamps\\UniversalOpamp2 880 -608 R0
SYMATTR InstName U8
SYMBOL res 720 -512 R270
WINDOW 0 32 56 VTop 2
WINDOW 3 0 56 VBottom 2
SYMATTR InstName R19
SYMATTR Value 100
SYMBOL res 864 -512 R270
WINDOW 0 32 56 VTop 2
WINDOW 3 0 56 VBottom 2
SYMATTR InstName R20
SYMATTR Value 100k
SYMBOL diode 720 -608 R270
WINDOW 0 32 32 VTop 2
WINDOW 3 0 32 VBottom 2
SYMATTR InstName D8
SYMBOL res 624 -640 R0
SYMATTR InstName R21
SYMATTR Value 10Meg
SYMBOL Opamps\\UniversalOpamp2 1152 -592 R0
SYMATTR InstName U9
SYMBOL res 992 -496 R270
WINDOW 0 32 56 VTop 2
WINDOW 3 0 56 VBottom 2
SYMATTR InstName R22
SYMATTR Value 100
SYMBOL res 1136 -496 R270
WINDOW 0 32 56 VTop 2
WINDOW 3 0 56 VBottom 2
SYMATTR InstName R23
SYMATTR Value 100k
SYMBOL diode 1088 -752 R90
WINDOW 0 0 32 VBottom 2
WINDOW 3 32 32 VTop 2
SYMATTR InstName D9
SYMBOL diode 688 -656 R180
WINDOW 0 24 64 Left 2
WINDOW 3 24 0 Left 2
SYMATTR InstName D10
SYMBOL diode 1264 -480 R0
SYMATTR InstName D11
SYMBOL voltage 864 -416 R0
WINDOW 123 0 0 Left 2
WINDOW 39 0 0 Left 2
SYMATTR InstName V1
SYMATTR Value 5
SYMBOL voltage 960 -416 R0
WINDOW 123 0 0 Left 2
WINDOW 39 0 0 Left 2
SYMATTR InstName V2
SYMATTR Value -5
SYMBOL Opamps\\OP07 1632 -368 R0
SYMATTR InstName U1
SYMBOL res 1504 -384 R90
WINDOW 0 0 56 VBottom 2
WINDOW 3 32 56 VTop 2
SYMATTR InstName R1
SYMATTR Value 1.25Meg
SYMBOL res 1504 -272 R90
WINDOW 0 0 56 VBottom 2
WINDOW 3 32 56 VTop 2
SYMATTR InstName R2
SYMATTR Value 1Meg
SYMBOL res 1680 -448 R90
WINDOW 0 0 56 VBottom 2
WINDOW 3 32 56 VTop 2
SYMATTR InstName R3
SYMATTR Value 1Meg
SYMBOL Opamps\\OP07 1872 -352 R0
SYMATTR InstName U2
SYMBOL res 1920 -432 R90
WINDOW 0 0 56 VBottom 2
WINDOW 3 32 56 VTop 2
SYMATTR InstName R4
SYMATTR Value 1Meg
SYMBOL res 1808 -320 R90
WINDOW 0 0 56 VBottom 2
WINDOW 3 32 56 VTop 2
SYMATTR InstName R5
SYMATTR Value 1Meg
SYMBOL diode 1312 -240 R270
WINDOW 0 32 32 VTop 2
WINDOW 3 0 32 VBottom 2
SYMATTR InstName D1
SYMBOL voltage 1536 -160 R0
WINDOW 123 0 0 Left 2
WINDOW 39 0 0 Left 2
SYMATTR InstName V3
SYMATTR Value 12
SYMBOL voltage 1632 -160 R0
WINDOW 123 0 0 Left 2
WINDOW 39 0 0 Left 2
SYMATTR InstName V4
SYMATTR Value -12
