Version 4
SHEET 1 1524 692
WIRE 736 -800 720 -800
WIRE 832 -800 816 -800
WIRE 832 -736 832 -800
WIRE 832 -736 816 -736
WIRE 880 -736 832 -736
WIRE 1440 -736 960 -736
WIRE 720 -720 720 -800
WIRE 720 -720 672 -720
WIRE 752 -720 720 -720
WIRE 832 -704 816 -704
WIRE 832 -688 832 -704
WIRE 640 -624 480 -624
WIRE 672 -624 672 -656
WIRE 672 -624 640 -624
WIRE 720 -624 672 -624
WIRE 848 -624 816 -624
WIRE 960 -608 912 -608
WIRE 1056 -608 960 -608
WIRE 1120 -608 1088 -608
WIRE 784 -592 784 -624
WIRE 848 -592 784 -592
WIRE 1280 -592 1184 -592
WIRE 1056 -576 1056 -608
WIRE 1120 -576 1056 -576
WIRE 816 -528 816 -624
WIRE 880 -528 816 -528
WIRE 960 -528 960 -608
WIRE 1088 -512 1088 -608
WIRE 1152 -512 1088 -512
WIRE 1280 -512 1280 -592
WIRE 1280 -512 1232 -512
WIRE 1440 -432 1440 -736
WIRE 1280 -416 1280 -512
WIRE 1440 -352 1440 -368
FLAG 784 -688 V-
FLAG 784 -752 V+
FLAG 832 -688 0
FLAG 880 -576 V-
FLAG 880 -640 V+
FLAG 736 -528 0
FLAG 640 -544 0
FLAG 1152 -560 V-
FLAG 1152 -624 V+
FLAG 1008 -512 0
FLAG 480 -624 INOUT
FLAG 1280 -352 NeuronIN
FLAG 1440 -352 NeuronOUT
FLAG 688 -288 0
FLAG 784 -288 0
FLAG 688 -368 V+
FLAG 784 -368 V-
SYMBOL Opamps\\UniversalOpamp2 784 -720 M0
SYMATTR InstName U7
SYMBOL res 720 -816 M90
WINDOW 0 0 56 VBottom 2
WINDOW 3 -16 22 VTop 2
SYMATTR InstName R17
SYMATTR Value 50k
SYMBOL res 864 -752 M90
WINDOW 0 0 56 VBottom 2
WINDOW 3 32 56 VTop 2
SYMATTR InstName R18
SYMATTR Value 1k
SYMBOL Opamps\\UniversalOpamp2 880 -608 R0
SYMATTR InstName U8
SYMBOL res 720 -512 R270
WINDOW 0 32 56 VTop 2
WINDOW 3 0 56 VBottom 2
SYMATTR InstName R19
SYMATTR Value 1
SYMBOL res 864 -512 R270
WINDOW 0 32 56 VTop 2
WINDOW 3 0 56 VBottom 2
SYMATTR InstName R20
SYMATTR Value 100k
SYMBOL diode 720 -608 R270
WINDOW 0 32 32 VTop 2
WINDOW 3 0 32 VBottom 2
SYMATTR InstName D8
SYMBOL res 624 -640 R0
SYMATTR InstName R21
SYMATTR Value 10Meg
SYMBOL Opamps\\UniversalOpamp2 1152 -592 R0
SYMATTR InstName U9
SYMBOL res 992 -496 R270
WINDOW 0 32 56 VTop 2
WINDOW 3 0 56 VBottom 2
SYMATTR InstName R22
SYMATTR Value 1
SYMBOL res 1136 -496 R270
WINDOW 0 32 56 VTop 2
WINDOW 3 0 56 VBottom 2
SYMATTR InstName R23
SYMATTR Value 100k
SYMBOL diode 1456 -368 R180
WINDOW 0 24 64 Left 2
WINDOW 3 24 0 Left 2
SYMATTR InstName D9
SYMBOL diode 688 -656 R180
WINDOW 0 24 64 Left 2
WINDOW 3 24 0 Left 2
SYMATTR InstName D10
SYMBOL diode 1264 -416 R0
SYMATTR InstName D11
SYMBOL voltage 688 -384 R0
WINDOW 123 0 0 Left 2
WINDOW 39 0 0 Left 2
SYMATTR InstName V1
SYMATTR Value 5
SYMBOL voltage 784 -384 R0
WINDOW 123 0 0 Left 2
WINDOW 39 0 0 Left 2
SYMATTR InstName V2
SYMATTR Value -5
