Version 4
SHEET 1 3084 692
WIRE 944 -976 784 -976
WIRE 1008 -912 992 -912
WIRE 1104 -912 1088 -912
WIRE 944 -864 944 -976
WIRE 944 -864 896 -864
WIRE 784 -848 784 -976
WIRE 784 -848 672 -848
WIRE 832 -848 784 -848
WIRE 1104 -848 1104 -912
WIRE 1104 -848 1088 -848
WIRE 1152 -848 1104 -848
WIRE 1296 -848 1232 -848
WIRE 672 -832 672 -848
WIRE 960 -832 896 -832
WIRE 992 -832 992 -912
WIRE 992 -832 960 -832
WIRE 1024 -832 992 -832
WIRE 1104 -816 1088 -816
WIRE 1104 -800 1104 -816
WIRE 672 -720 672 -752
WIRE 880 -688 832 -688
WIRE 1040 -688 960 -688
WIRE 1456 -656 1408 -656
WIRE 1616 -656 1536 -656
WIRE 1296 -640 1168 -640
WIRE 672 -624 672 -656
WIRE 672 -624 480 -624
WIRE 720 -624 672 -624
WIRE 832 -624 832 -688
WIRE 832 -624 784 -624
WIRE 1872 -608 1744 -608
WIRE 832 -592 832 -624
WIRE 928 -592 832 -592
WIRE 1040 -576 1040 -688
WIRE 1040 -576 992 -576
WIRE 1136 -576 1040 -576
WIRE 1168 -576 1168 -640
WIRE 1200 -576 1168 -576
WIRE 1296 -560 1296 -640
WIRE 1296 -560 1264 -560
WIRE 1312 -560 1296 -560
WIRE 1408 -560 1408 -656
WIRE 1408 -560 1392 -560
WIRE 1504 -560 1408 -560
WIRE 1136 -544 1136 -576
WIRE 1200 -544 1136 -544
WIRE 1616 -544 1616 -656
WIRE 1616 -544 1568 -544
WIRE 1712 -544 1616 -544
WIRE 1744 -544 1744 -608
WIRE 1776 -544 1744 -544
WIRE 1872 -528 1872 -608
WIRE 1872 -528 1840 -528
WIRE 1936 -528 1872 -528
WIRE 1712 -512 1712 -544
WIRE 1776 -512 1712 -512
WIRE 1936 -416 1936 -528
WIRE 2240 -400 2208 -400
WIRE 2368 -400 2320 -400
WIRE 2768 -384 2736 -384
WIRE 2896 -384 2848 -384
WIRE 2592 -352 2464 -352
WIRE 1936 -336 1936 -352
WIRE 2064 -336 1936 -336
WIRE 2176 -336 2144 -336
WIRE 2896 -304 2896 -384
WIRE 2960 -304 2896 -304
WIRE 2176 -288 2176 -336
WIRE 2176 -288 2144 -288
WIRE 2208 -288 2208 -400
WIRE 2208 -288 2176 -288
WIRE 2256 -288 2208 -288
WIRE 2464 -288 2464 -352
WIRE 2496 -288 2464 -288
WIRE 2368 -272 2368 -400
WIRE 2368 -272 2320 -272
WIRE 2432 -272 2368 -272
WIRE 2592 -272 2592 -352
WIRE 2592 -272 2560 -272
WIRE 2656 -272 2592 -272
WIRE 2736 -272 2736 -384
WIRE 2784 -272 2736 -272
WIRE 2432 -256 2432 -272
WIRE 2496 -256 2432 -256
WIRE 2896 -256 2896 -304
WIRE 2896 -256 2848 -256
WIRE 1968 -224 1920 -224
WIRE 2064 -224 2032 -224
WIRE 2144 -224 2144 -288
FLAG 1056 -800 V-
FLAG 1056 -864 V+
FLAG 1104 -800 0
FLAG 960 -544 V-
FLAG 960 -608 V+
FLAG 1232 -528 V-
FLAG 1232 -592 V+
FLAG 480 -624 INOUT
FLAG 2960 -304 NeuronIN
FLAG 1296 -848 NeuronOUT
FLAG 304 -912 0
FLAG 400 -912 0
FLAG 304 -992 V+
FLAG 400 -992 V-
FLAG 2256 -256 0
FLAG 2784 -240 0
FLAG 1920 -224 Label
IOPIN 1920 -224 In
FLAG 512 -912 0
FLAG 608 -912 0
FLAG 512 -992 V12+
FLAG 608 -992 V12-
FLAG 2288 -304 V12+
FLAG 2816 -288 V12+
FLAG 2288 -240 V12-
FLAG 2816 -224 V12-
FLAG 864 -880 V+
FLAG 864 -816 V-
FLAG 960 -752 0
FLAG 928 -560 0
FLAG 1040 -496 0
FLAG 1504 -528 0
FLAG 1616 -464 0
FLAG 2432 -176 0
FLAG 2528 -304 V12+
FLAG 2528 -240 V12-
FLAG 1808 -560 V12+
FLAG 1536 -576 V12+
FLAG 1808 -496 V12-
FLAG 1536 -512 V12-
SYMBOL Opamps\\UniversalOpamp2 1056 -832 M0
SYMATTR InstName U7
SYMBOL res 992 -928 M90
WINDOW 0 0 56 VBottom 2
WINDOW 3 -16 22 VTop 2
SYMATTR InstName R17
SYMATTR Value 50k
SYMBOL res 1136 -864 M90
WINDOW 0 0 56 VBottom 2
WINDOW 3 32 56 VTop 2
SYMATTR InstName R18
SYMATTR Value 1k
SYMBOL Opamps\\UniversalOpamp2 960 -576 R0
SYMATTR InstName U8
SYMBOL diode 720 -608 R270
WINDOW 0 32 32 VTop 2
WINDOW 3 0 32 VBottom 2
SYMATTR InstName D8
SYMBOL res 656 -848 R0
SYMATTR InstName R21
SYMATTR Value 1Meg
SYMBOL Opamps\\UniversalOpamp2 1232 -560 R0
SYMATTR InstName U9
SYMBOL diode 688 -656 R180
WINDOW 0 24 64 Left 2
WINDOW 3 24 0 Left 2
SYMATTR InstName D10
SYMBOL diode 1920 -416 R0
SYMATTR InstName D11
SYMBOL voltage 304 -1008 R0
WINDOW 123 0 0 Left 2
WINDOW 39 0 0 Left 2
SYMATTR InstName V1
SYMATTR Value 5
SYMBOL voltage 400 -1008 R0
WINDOW 123 0 0 Left 2
WINDOW 39 0 0 Left 2
SYMATTR InstName V2
SYMATTR Value -5
SYMBOL Opamps\\OP07 2288 -336 R0
SYMATTR InstName U1
SYMBOL res 2160 -352 R90
WINDOW 0 0 56 VBottom 2
WINDOW 3 32 56 VTop 2
SYMATTR InstName R1
SYMATTR Value 400
SYMBOL res 2160 -240 R90
WINDOW 0 0 56 VBottom 2
WINDOW 3 32 56 VTop 2
SYMATTR InstName R2
SYMATTR Value 300
SYMBOL res 2336 -416 R90
WINDOW 0 0 56 VBottom 2
WINDOW 3 32 56 VTop 2
SYMATTR InstName R3
SYMATTR Value 1.2k
SYMBOL Opamps\\OP07 2816 -320 R0
SYMATTR InstName U2
SYMBOL res 2864 -400 R90
WINDOW 0 0 56 VBottom 2
WINDOW 3 32 56 VTop 2
SYMATTR InstName R4
SYMATTR Value 10k
SYMBOL res 2752 -288 R90
WINDOW 0 0 56 VBottom 2
WINDOW 3 32 56 VTop 2
SYMATTR InstName R5
SYMATTR Value 10k
SYMBOL diode 1968 -208 R270
WINDOW 0 32 32 VTop 2
WINDOW 3 0 32 VBottom 2
SYMATTR InstName D1
SYMBOL voltage 512 -1008 R0
WINDOW 123 0 0 Left 2
WINDOW 39 0 0 Left 2
SYMATTR InstName V3
SYMATTR Value 12
SYMBOL voltage 608 -1008 R0
WINDOW 123 0 0 Left 2
WINDOW 39 0 0 Left 2
SYMATTR InstName V4
SYMATTR Value -12
SYMBOL Opamps\\OP07 864 -912 M0
SYMATTR InstName U3
SYMBOL res 944 -848 R0
SYMATTR InstName R6
SYMATTR Value 100k
SYMBOL res 1024 -592 R0
SYMATTR InstName R7
SYMATTR Value 10k
SYMBOL res 976 -704 R90
WINDOW 0 0 56 VBottom 2
WINDOW 3 32 56 VTop 2
SYMATTR InstName R8
SYMATTR Value 10k
SYMBOL Opamps\\UniversalOpamp2 1536 -544 R0
SYMATTR InstName U4
SYMBOL Opamps\\UniversalOpamp2 1808 -528 R0
SYMATTR InstName U5
SYMBOL res 1600 -560 R0
SYMATTR InstName R9
SYMATTR Value 100k
SYMBOL res 1552 -672 R90
WINDOW 0 0 56 VBottom 2
WINDOW 3 32 56 VTop 2
SYMATTR InstName R10
SYMATTR Value 100k
SYMBOL res 1408 -576 R90
WINDOW 0 0 56 VBottom 2
WINDOW 3 32 56 VTop 2
SYMATTR InstName R11
SYMATTR Value 150
SYMBOL Opamps\\UniversalOpamp2 2528 -272 R0
SYMATTR InstName U6
SYMBOL res 2416 -272 R0
SYMATTR InstName R12
SYMATTR Value 10k
TEXT 2360 -136 Left 2 ;questionable
TEXT 2024 -400 Left 2 ;questionable
TEXT 2040 -176 Left 2 ;questionable
TEXT 1408 -720 Left 2 ;questionable
TEXT 1280 -496 Left 2 ;questionable
