Version 4
SHEET 1 3500 692
WIRE 1456 -1520 1296 -1520
WIRE 1520 -1456 1504 -1456
WIRE 1616 -1456 1600 -1456
WIRE 1456 -1408 1456 -1520
WIRE 1456 -1408 1408 -1408
WIRE 1296 -1392 1296 -1520
WIRE 1296 -1392 1184 -1392
WIRE 1344 -1392 1296 -1392
WIRE 1616 -1392 1616 -1456
WIRE 1616 -1392 1600 -1392
WIRE 1664 -1392 1616 -1392
WIRE 1808 -1392 1744 -1392
WIRE 1472 -1376 1408 -1376
WIRE 1504 -1376 1504 -1456
WIRE 1504 -1376 1472 -1376
WIRE 1536 -1376 1504 -1376
WIRE 1616 -1360 1600 -1360
WIRE 1616 -1344 1616 -1360
WIRE 1184 -1264 1184 -1392
WIRE 1968 -1264 1888 -1264
WIRE 2096 -1264 2048 -1264
WIRE 1392 -1232 1344 -1232
WIRE 1552 -1232 1472 -1232
WIRE 2304 -1232 2176 -1232
WIRE 1776 -1216 1648 -1216
WIRE 2624 -1200 2592 -1200
WIRE 2752 -1200 2704 -1200
WIRE 3152 -1200 3120 -1200
WIRE 3280 -1200 3232 -1200
WIRE 1184 -1168 1184 -1200
WIRE 1184 -1168 992 -1168
WIRE 1344 -1168 1344 -1232
WIRE 1344 -1168 1184 -1168
WIRE 2976 -1168 2848 -1168
WIRE 1648 -1152 1648 -1216
WIRE 1680 -1152 1648 -1152
WIRE 2176 -1152 2176 -1232
WIRE 2208 -1152 2176 -1152
WIRE 1344 -1136 1344 -1168
WIRE 1440 -1136 1344 -1136
WIRE 1776 -1136 1776 -1216
WIRE 1776 -1136 1744 -1136
WIRE 1792 -1136 1776 -1136
WIRE 1888 -1136 1888 -1264
WIRE 1888 -1136 1872 -1136
WIRE 1984 -1136 1888 -1136
WIRE 2304 -1136 2304 -1232
WIRE 2304 -1136 2272 -1136
WIRE 2368 -1136 2304 -1136
WIRE 2448 -1136 2432 -1136
WIRE 2560 -1136 2528 -1136
WIRE 1552 -1120 1552 -1232
WIRE 1552 -1120 1504 -1120
WIRE 1680 -1120 1552 -1120
WIRE 2096 -1120 2096 -1264
WIRE 2096 -1120 2048 -1120
WIRE 2208 -1120 2096 -1120
WIRE 2848 -1104 2848 -1168
WIRE 2880 -1104 2848 -1104
WIRE 2560 -1088 2560 -1136
WIRE 2592 -1088 2592 -1200
WIRE 2592 -1088 2560 -1088
WIRE 2640 -1088 2592 -1088
WIRE 2976 -1088 2976 -1168
WIRE 2976 -1088 2944 -1088
WIRE 3040 -1088 2976 -1088
WIRE 3120 -1088 3120 -1200
WIRE 3168 -1088 3120 -1088
WIRE 2752 -1072 2752 -1200
WIRE 2752 -1072 2704 -1072
WIRE 2816 -1072 2752 -1072
WIRE 2880 -1072 2816 -1072
WIRE 3280 -1072 3280 -1200
WIRE 3280 -1072 3232 -1072
WIRE 3344 -1072 3280 -1072
WIRE 2448 -1024 2432 -1024
WIRE 2560 -1024 2560 -1088
WIRE 2560 -1024 2528 -1024
WIRE 2560 -992 2560 -1024
WIRE 2400 -896 2352 -896
WIRE 2560 -896 2560 -912
WIRE 2560 -896 2480 -896
WIRE 2352 -800 2352 -896
WIRE 2448 -800 2352 -800
WIRE 2560 -784 2560 -896
WIRE 2560 -784 2512 -784
FLAG 992 -1168 INOUT
FLAG 3344 -1072 NeuronIN
FLAG 1808 -1392 NeuronOUT
FLAG 1104 -848 0
FLAG 1200 -848 0
FLAG 1104 -928 V12+
FLAG 1200 -928 V12-
FLAG 1568 -1344 V12-
FLAG 1568 -1408 V12+
FLAG 1616 -1344 0
FLAG 1472 -1088 V12-
FLAG 1472 -1152 V12+
FLAG 1712 -1104 V12-
FLAG 1712 -1168 V12+
FLAG 2640 -1056 0
FLAG 3168 -1056 0
FLAG 2672 -1104 V12+
FLAG 3200 -1104 V12+
FLAG 2672 -1040 V12-
FLAG 3200 -1040 V12-
FLAG 1376 -1424 V12+
FLAG 1376 -1360 V12-
FLAG 1472 -1296 0
FLAG 1440 -1104 0
FLAG 1552 -1040 0
FLAG 1984 -1104 0
FLAG 2096 -1040 0
FLAG 2816 -992 0
FLAG 2912 -1120 V12+
FLAG 2912 -1056 V12-
FLAG 2240 -1168 V12+
FLAG 2016 -1152 V12+
FLAG 2240 -1104 V12-
FLAG 2016 -1088 V12-
FLAG 2480 -752 V12-
FLAG 2480 -816 V12+
FLAG 2448 -768 0
FLAG 2368 -1024 Label
IOPIN 2368 -1024 In
FLAG 2272 -800 Label2
IOPIN 2272 -800 In
SYMBOL voltage 1104 -944 R0
WINDOW 123 0 0 Left 2
WINDOW 39 0 0 Left 2
SYMATTR InstName V3
SYMATTR Value 12
SYMBOL voltage 1200 -944 R0
WINDOW 123 0 0 Left 2
WINDOW 39 0 0 Left 2
SYMATTR InstName V4
SYMATTR Value -12
SYMBOL Opamps\\UniversalOpamp2 1568 -1376 M0
SYMATTR InstName U10
SYMBOL res 1504 -1472 M90
WINDOW 0 0 56 VBottom 2
WINDOW 3 -16 22 VTop 2
SYMATTR InstName R13
SYMATTR Value 20k
SYMBOL res 1648 -1408 M90
WINDOW 0 0 56 VBottom 2
WINDOW 3 32 56 VTop 2
SYMATTR InstName R14
SYMATTR Value 1k
SYMBOL Opamps\\UniversalOpamp2 1472 -1120 R0
SYMATTR InstName U11
SYMBOL Opamps\\UniversalOpamp2 1712 -1136 R0
SYMATTR InstName U12
SYMBOL diode 1200 -1200 R180
WINDOW 0 24 64 Left 2
WINDOW 3 24 0 Left 2
SYMATTR InstName D2
SYMBOL diode 2368 -1120 R270
WINDOW 0 32 32 VTop 2
WINDOW 3 0 32 VBottom 2
SYMATTR InstName D3
SYMBOL Opamps\\OP07 2672 -1136 R0
SYMATTR InstName U13
SYMBOL res 2544 -1152 R90
WINDOW 0 0 56 VBottom 2
WINDOW 3 32 56 VTop 2
SYMATTR InstName R15
SYMATTR Value 1.75k
SYMBOL res 2544 -1040 R90
WINDOW 0 0 56 VBottom 2
WINDOW 3 32 56 VTop 2
SYMATTR InstName R16
SYMATTR Value 1.2k
SYMBOL res 2720 -1216 R90
WINDOW 0 0 56 VBottom 2
WINDOW 3 32 56 VTop 2
SYMATTR InstName R19
SYMATTR Value 1.5k
SYMBOL Opamps\\OP07 3200 -1136 R0
SYMATTR InstName U14
SYMBOL res 3248 -1216 R90
WINDOW 0 0 56 VBottom 2
WINDOW 3 32 56 VTop 2
SYMATTR InstName R20
SYMATTR Value 10k
SYMBOL res 3136 -1104 R90
WINDOW 0 0 56 VBottom 2
WINDOW 3 32 56 VTop 2
SYMATTR InstName R22
SYMATTR Value 10k
SYMBOL diode 2368 -1008 R270
WINDOW 0 32 32 VTop 2
WINDOW 3 0 32 VBottom 2
SYMATTR InstName D4
SYMBOL Opamps\\OP07 1376 -1456 M0
SYMATTR InstName U15
SYMBOL res 1456 -1392 R0
SYMATTR InstName R23
SYMATTR Value 10k
SYMBOL res 1536 -1136 R0
SYMATTR InstName R24
SYMATTR Value 10k
SYMBOL res 1488 -1248 R90
WINDOW 0 0 56 VBottom 2
WINDOW 3 32 56 VTop 2
SYMATTR InstName R25
SYMATTR Value 100k
SYMBOL Opamps\\UniversalOpamp2 2016 -1120 R0
SYMATTR InstName U16
SYMBOL Opamps\\UniversalOpamp2 2240 -1136 R0
SYMATTR InstName U17
SYMBOL res 2080 -1136 R0
SYMATTR InstName R26
SYMATTR Value 10k
SYMBOL res 2064 -1280 R90
WINDOW 0 0 56 VBottom 2
WINDOW 3 32 56 VTop 2
SYMATTR InstName R27
SYMATTR Value 100k
SYMBOL res 1888 -1152 R90
WINDOW 0 0 56 VBottom 2
WINDOW 3 32 56 VTop 2
SYMATTR InstName R28
SYMATTR Value 150
SYMBOL Opamps\\UniversalOpamp2 2912 -1088 R0
SYMATTR InstName U18
SYMBOL res 2800 -1088 R0
SYMATTR InstName R29
SYMATTR Value 10k
SYMBOL Opamps\\UniversalOpamp2 2480 -784 R0
SYMATTR InstName U19
SYMBOL res 2368 -816 R90
WINDOW 0 0 56 VBottom 2
WINDOW 3 32 56 VTop 2
SYMATTR InstName R30
SYMATTR Value 1k
SYMBOL res 2496 -912 R90
WINDOW 0 0 56 VBottom 2
WINDOW 3 32 56 VTop 2
SYMATTR InstName R31
SYMATTR Value 3k
SYMBOL res 2544 -1008 R0
SYMATTR InstName R32
SYMATTR Value 1k
