Version 4
SHEET 1 1012 680
WIRE -32 96 -288 96
WIRE 64 96 -32 96
WIRE 256 96 128 96
WIRE 48 176 -64 176
WIRE 64 176 48 176
WIRE 256 176 128 176
WIRE -288 192 -288 96
WIRE -64 192 -64 176
WIRE 336 256 336 176
WIRE 336 304 336 256
WIRE 400 304 336 304
WIRE 464 304 400 304
WIRE 576 304 528 304
FLAG -64 272 0
FLAG 96 192 0
FLAG -288 272 0
FLAG 496 320 0
FLAG 96 112 0
FLAG 448 592 0
FLAG 560 592 0
FLAG 448 512 V+
FLAG 560 512 V-
FLAG 400 384 0
FLAG 48 256 0
FLAG -32 16 0
SYMBOL voltage -64 176 R0
WINDOW 123 0 0 Left 2
WINDOW 39 0 0 Left 2
SYMATTR InstName V1
SYMATTR Value SINE(0 0 100)
SYMBOL voltage -288 176 R0
WINDOW 123 0 0 Left 2
WINDOW 39 0 0 Left 2
SYMATTR InstName V2
SYMATTR Value SINE(0 0 100)
SYMBOL Synapse 256 176 R0
SYMATTR InstName X3
SYMBOL Synapse 256 96 R0
SYMATTR InstName X4
SYMBOL voltage 448 496 R0
WINDOW 123 0 0 Left 2
WINDOW 39 0 0 Left 2
SYMATTR InstName V3
SYMATTR Value 5
SYMBOL voltage 560 496 R0
WINDOW 123 0 0 Left 2
WINDOW 39 0 0 Left 2
SYMATTR InstName V4
SYMATTR Value -5
SYMBOL AHP 464 304 R0
SYMATTR InstName X6
SYMATTR SpiceLine Rinhibition = 5Meg
SYMBOL AHP 64 176 R0
SYMATTR InstName X5
SYMATTR SpiceLine Rinhibition = 5Meg
SYMBOL AHP 64 96 R0
SYMATTR InstName X1
SYMATTR SpiceLine Rinhibition = 5Meg
SYMBOL res 384 288 R0
SYMATTR InstName R1
SYMATTR Value 1Meg
SYMBOL res 32 160 R0
SYMATTR InstName R2
SYMATTR Value 1Meg
SYMBOL res -48 0 R0
SYMATTR InstName R3
SYMATTR Value 1Meg
TEXT -96 296 Left 2 !.tran 1
