Version 4
SHEET 1 1428 692
WIRE 704 -240 688 -240
WIRE 800 -240 784 -240
WIRE 800 -176 800 -240
WIRE 800 -176 784 -176
WIRE 848 -176 800 -176
WIRE 1408 -176 928 -176
WIRE 688 -160 688 -240
WIRE 688 -160 640 -160
WIRE 720 -160 688 -160
WIRE -48 -144 -464 -144
WIRE 80 -144 -48 -144
WIRE 416 -144 144 -144
WIRE 800 -144 784 -144
WIRE 800 -128 800 -144
WIRE 608 -64 496 -64
WIRE 640 -64 640 -96
WIRE 640 -64 608 -64
WIRE 688 -64 640 -64
WIRE 816 -64 784 -64
WIRE -464 -48 -464 -144
WIRE 928 -48 880 -48
WIRE 1024 -48 928 -48
WIRE 1088 -48 1056 -48
WIRE 752 -32 752 -64
WIRE 816 -32 752 -32
WIRE 1248 -32 1152 -32
WIRE 1024 -16 1024 -48
WIRE 1088 -16 1024 -16
WIRE 784 32 784 -64
WIRE 848 32 784 32
WIRE 928 32 928 -48
WIRE 1056 48 1056 -48
WIRE 1120 48 1056 48
WIRE 1248 48 1248 -32
WIRE 1248 48 1200 48
WIRE 1408 112 1408 -176
WIRE 1408 112 1024 112
WIRE 1408 128 1408 112
WIRE 688 144 672 144
WIRE 784 144 768 144
WIRE 1248 144 1248 48
WIRE 784 208 784 144
WIRE 784 208 768 208
WIRE 832 208 784 208
WIRE 1024 208 1024 112
WIRE 1024 208 912 208
WIRE 1344 208 1248 208
WIRE 1408 208 1408 192
WIRE 0 224 -208 224
WIRE 96 224 0 224
WIRE 432 224 160 224
WIRE 672 224 672 144
WIRE 672 224 624 224
WIRE 704 224 672 224
WIRE -208 240 -208 224
WIRE 784 240 768 240
WIRE 784 256 784 240
WIRE 512 320 512 304
WIRE 592 320 512 320
WIRE 624 320 624 288
WIRE 624 320 592 320
WIRE 672 320 624 320
WIRE 800 320 768 320
WIRE 912 336 864 336
WIRE 1008 336 912 336
WIRE 1072 336 1040 336
WIRE 736 352 736 320
WIRE 800 352 736 352
WIRE 1232 352 1136 352
WIRE 1248 352 1248 272
WIRE 1248 352 1232 352
WIRE 1008 368 1008 336
WIRE 1072 368 1008 368
WIRE 768 416 768 320
WIRE 832 416 768 416
WIRE 912 416 912 336
WIRE 1040 432 1040 336
WIRE 1104 432 1040 432
WIRE 1232 432 1232 352
WIRE 1232 432 1184 432
FLAG -208 320 0
FLAG 128 240 0
FLAG -464 32 0
FLAG 1376 224 0
FLAG 112 -128 0
FLAG 448 672 0
FLAG 560 672 0
FLAG 448 592 V+
FLAG 560 592 V-
FLAG 0 304 0
FLAG -48 -224 0
FLAG 752 -128 V-
FLAG 752 -192 V+
FLAG 800 -128 0
FLAG 848 -16 V-
FLAG 848 -80 V+
FLAG 704 32 0
FLAG 608 16 0
FLAG 1120 0 V-
FLAG 1120 -64 V+
FLAG 976 48 0
FLAG 736 256 V-
FLAG 736 192 V+
FLAG 784 256 0
FLAG 832 368 V-
FLAG 832 304 V+
FLAG 688 416 0
FLAG 592 400 0
FLAG 1104 384 V-
FLAG 1104 320 V+
FLAG 960 432 0
SYMBOL voltage -208 224 R0
WINDOW 123 0 0 Left 2
WINDOW 39 0 0 Left 2
SYMATTR InstName V1
SYMATTR Value SINE(0 0 100)
SYMBOL voltage -464 -64 R0
WINDOW 123 0 0 Left 2
WINDOW 39 0 0 Left 2
SYMATTR InstName V2
SYMATTR Value SINE(0 8 100)
SYMBOL Synapse 512 304 R180
SYMATTR InstName X3
SYMBOL Synapse 496 -64 R180
SYMATTR InstName X4
SYMBOL voltage 448 576 R0
WINDOW 123 0 0 Left 2
WINDOW 39 0 0 Left 2
SYMATTR InstName V3
SYMATTR Value 5
SYMBOL voltage 560 576 R0
WINDOW 123 0 0 Left 2
WINDOW 39 0 0 Left 2
SYMATTR InstName V4
SYMATTR Value -5
SYMBOL AHP 1344 208 R0
SYMATTR InstName X6
SYMATTR SpiceLine Rinhibition = 5Meg
SYMBOL AHP 96 224 R0
SYMATTR InstName X5
SYMATTR SpiceLine Rinhibition = 5Meg
SYMBOL AHP 80 -144 R0
SYMATTR InstName X1
SYMATTR SpiceLine Rinhibition = 5Meg
SYMBOL res -16 208 R0
SYMATTR InstName R2
SYMATTR Value 1Meg
SYMBOL res -64 -240 R0
SYMATTR InstName R3
SYMATTR Value 1Meg
SYMBOL Opamps\\UniversalOpamp2 752 -160 M0
SYMATTR InstName U1
SYMBOL res 688 -256 M90
WINDOW 0 0 56 VBottom 2
WINDOW 3 -16 22 VTop 2
SYMATTR InstName R1
SYMATTR Value 50k
SYMBOL res 832 -192 M90
WINDOW 0 0 56 VBottom 2
WINDOW 3 32 56 VTop 2
SYMATTR InstName R4
SYMATTR Value 1k
SYMBOL Opamps\\UniversalOpamp2 848 -48 R0
SYMATTR InstName U2
SYMBOL res 688 48 R270
WINDOW 0 32 56 VTop 2
WINDOW 3 0 56 VBottom 2
SYMATTR InstName R5
SYMATTR Value 1
SYMBOL res 832 48 R270
WINDOW 0 32 56 VTop 2
WINDOW 3 0 56 VBottom 2
SYMATTR InstName R6
SYMATTR Value 100k
SYMBOL diode 688 -48 R270
WINDOW 0 32 32 VTop 2
WINDOW 3 0 32 VBottom 2
SYMATTR InstName D1
SYMBOL res 592 -80 R0
SYMATTR InstName R9
SYMATTR Value 10Meg
SYMBOL Opamps\\UniversalOpamp2 1120 -32 R0
SYMATTR InstName U4
SYMBOL res 960 64 R270
WINDOW 0 32 56 VTop 2
WINDOW 3 0 56 VBottom 2
SYMATTR InstName R10
SYMATTR Value 1
SYMBOL res 1104 64 R270
WINDOW 0 32 56 VTop 2
WINDOW 3 0 56 VBottom 2
SYMATTR InstName R11
SYMATTR Value 100k
SYMBOL diode 1424 192 R180
WINDOW 0 24 64 Left 2
WINDOW 3 24 0 Left 2
SYMATTR InstName D3
SYMBOL diode 656 -96 R180
WINDOW 0 24 64 Left 2
WINDOW 3 24 0 Left 2
SYMATTR InstName D2
SYMBOL Opamps\\UniversalOpamp2 736 224 M0
SYMATTR InstName U3
SYMBOL res 672 128 M90
WINDOW 0 0 56 VBottom 2
WINDOW 3 -16 22 VTop 2
SYMATTR InstName R7
SYMATTR Value 50k
SYMBOL res 816 192 M90
WINDOW 0 0 56 VBottom 2
WINDOW 3 32 56 VTop 2
SYMATTR InstName R8
SYMATTR Value 1k
SYMBOL Opamps\\UniversalOpamp2 832 336 R0
SYMATTR InstName U5
SYMBOL res 672 432 R270
WINDOW 0 32 56 VTop 2
WINDOW 3 0 56 VBottom 2
SYMATTR InstName R12
SYMATTR Value 1
SYMBOL res 816 432 R270
WINDOW 0 32 56 VTop 2
WINDOW 3 0 56 VBottom 2
SYMATTR InstName R13
SYMATTR Value 100k
SYMBOL diode 672 336 R270
WINDOW 0 32 32 VTop 2
WINDOW 3 0 32 VBottom 2
SYMATTR InstName D4
SYMBOL res 576 304 R0
SYMATTR InstName R14
SYMATTR Value 10Meg
SYMBOL Opamps\\UniversalOpamp2 1104 352 R0
SYMATTR InstName U6
SYMBOL res 944 448 R270
WINDOW 0 32 56 VTop 2
WINDOW 3 0 56 VBottom 2
SYMATTR InstName R15
SYMATTR Value 1
SYMBOL res 1088 448 R270
WINDOW 0 32 56 VTop 2
WINDOW 3 0 56 VBottom 2
SYMATTR InstName R16
SYMATTR Value 100k
SYMBOL diode 640 288 R180
WINDOW 0 24 64 Left 2
WINDOW 3 24 0 Left 2
SYMATTR InstName D6
SYMBOL diode 1232 144 R0
SYMATTR InstName D5
SYMBOL diode 1264 272 R180
WINDOW 0 24 64 Left 2
WINDOW 3 24 0 Left 2
SYMATTR InstName D7
TEXT -240 344 Left 2 !.tran 1
