Version 4
SHEET 1 1272 680
WIRE 0 0 -144 0
WIRE 208 32 176 32
WIRE 336 32 288 32
WIRE 1040 64 1024 64
WIRE 1136 64 1120 64
WIRE -16 80 -48 80
WIRE 64 80 64 0
WIRE 608 112 592 112
WIRE 672 112 608 112
WIRE 176 128 176 32
WIRE 176 128 112 128
WIRE 224 128 176 128
WIRE 608 128 608 112
WIRE 672 128 672 112
WIRE 336 144 336 32
WIRE 336 144 288 144
WIRE -144 160 -144 0
WIRE -144 160 -160 160
WIRE -48 160 -48 80
WIRE -48 160 -96 160
WIRE -16 160 -48 160
WIRE 224 160 192 160
WIRE 992 160 992 144
WIRE 1024 160 1024 64
WIRE 1024 160 992 160
WIRE 1040 160 1024 160
WIRE 64 176 64 80
WIRE 64 176 48 176
WIRE 192 176 192 160
WIRE 192 176 64 176
WIRE 1136 176 1136 64
WIRE 1136 176 1104 176
WIRE 1168 176 1136 176
WIRE -16 192 -32 192
WIRE 976 192 912 192
WIRE 1040 192 976 192
WIRE 608 208 608 192
WIRE 672 208 608 208
WIRE -240 224 -240 160
WIRE 1248 224 1248 176
WIRE -32 304 -32 192
WIRE -32 304 -240 304
FLAG 160 480 0
FLAG 272 480 0
FLAG 272 400 V+
FLAG 16 144 V+
FLAG 160 400 V-
FLAG 16 208 V-
FLAG -32 304 0
FLAG 608 208 0
FLAG -240 160 V1
FLAG 448 112 V1
FLAG 1072 144 V+
FLAG 1072 208 V-
FLAG 976 272 0
FLAG 848 192 V1
FLAG 1248 288 0
FLAG 992 64 0
FLAG 256 112 V+
FLAG 256 176 V-
FLAG 112 48 0
SYMBOL Opamps\\OP07 16 112 R0
SYMATTR InstName U1
SYMBOL res -144 144 R90
WINDOW 0 0 56 VBottom 2
WINDOW 3 32 56 VTop 2
SYMATTR InstName R1
SYMATTR Value 1k
SYMBOL cap -96 144 R90
WINDOW 0 0 32 VBottom 2
WINDOW 3 32 32 VTop 2
SYMATTR InstName C1
SYMATTR Value 0.44µ
SYMBOL cap 64 -16 R90
WINDOW 0 0 32 VBottom 2
WINDOW 3 32 32 VTop 2
SYMATTR InstName C2
SYMATTR Value 0.44µ
SYMBOL res 80 64 R90
WINDOW 0 0 56 VBottom 2
WINDOW 3 32 56 VTop 2
SYMATTR InstName R2
SYMATTR Value 36k
SYMBOL voltage -240 208 R0
WINDOW 123 24 124 Left 2
WINDOW 39 0 0 Left 2
SYMATTR Value2 AC 1
SYMATTR InstName V1
SYMATTR Value ""
SYMBOL voltage 272 384 R0
WINDOW 123 0 0 Left 2
WINDOW 39 0 0 Left 2
SYMATTR InstName V2
SYMATTR Value 12
SYMBOL voltage 160 384 R0
WINDOW 123 0 0 Left 2
WINDOW 39 0 0 Left 2
SYMATTR InstName V3
SYMATTR Value -12
SYMBOL res 656 112 R0
SYMATTR InstName R4
SYMATTR Value 10k
SYMBOL res 544 96 R90
WINDOW 0 0 56 VBottom 2
WINDOW 3 32 56 VTop 2
SYMATTR InstName R3
SYMATTR Value 10k
SYMBOL cap 592 128 R0
SYMATTR InstName C3
SYMATTR Value 0.333µ
SYMBOL cap 592 96 R90
WINDOW 0 0 32 VBottom 2
WINDOW 3 32 32 VTop 2
SYMATTR InstName C4
SYMATTR Value 0.217µ
SYMBOL Opamps\\OP07 1072 112 R0
SYMATTR InstName U2
SYMBOL res 992 288 R180
WINDOW 0 36 76 Left 2
WINDOW 3 36 40 Left 2
SYMATTR InstName R5
SYMATTR Value 10k
SYMBOL cap 912 176 R90
WINDOW 0 0 32 VBottom 2
WINDOW 3 32 32 VTop 2
SYMATTR InstName C5
SYMATTR Value 0.217µ
SYMBOL cap 1264 288 R180
WINDOW 0 24 56 Left 2
WINDOW 3 24 8 Left 2
SYMATTR InstName C6
SYMATTR Value 0.333µ
SYMBOL res 1264 160 R90
WINDOW 0 0 56 VBottom 2
WINDOW 3 32 56 VTop 2
SYMATTR InstName R6
SYMATTR Value 10k
SYMBOL res 1136 48 R90
WINDOW 0 0 56 VBottom 2
WINDOW 3 32 56 VTop 2
SYMATTR InstName R7
SYMATTR Value 10k
SYMBOL res 1008 160 R180
WINDOW 0 36 76 Left 2
WINDOW 3 36 40 Left 2
SYMATTR InstName R8
SYMATTR Value 325
SYMBOL Opamps\\OP07 256 80 R0
SYMATTR InstName U3
SYMBOL res 96 32 R0
SYMATTR InstName R9
SYMATTR Value 10k
SYMBOL res 304 16 R90
WINDOW 0 0 56 VBottom 2
WINDOW 3 32 56 VTop 2
SYMATTR InstName R10
SYMATTR Value 10
TEXT -208 456 Left 2 !.ac dec 20 2 2000
TEXT 1000 -24 Left 2 ;Amplifiable filter
TEXT 496 -24 Left 2 ;Cheapest/smallest filter
TEXT -120 -56 Left 2 ;Narrowband filter
