Version 4
SHEET 1 1284 804
WIRE 624 -64 592 -64
WIRE 1008 -48 912 -48
WIRE 1008 16 1008 -48
WIRE 1008 16 992 16
WIRE -256 32 -576 32
WIRE -160 32 -192 32
WIRE 64 32 -80 32
WIRE 160 32 128 32
WIRE 256 32 160 32
WIRE 704 32 704 -64
WIRE 704 32 688 32
WIRE 736 32 704 32
WIRE 912 32 912 -48
WIRE 912 32 816 32
WIRE 928 32 912 32
WIRE 592 48 592 -64
WIRE 592 48 480 48
WIRE 624 48 592 48
WIRE 1040 48 992 48
WIRE 1072 48 1040 48
WIRE 1280 48 1136 48
WIRE 720 64 688 64
WIRE 720 128 720 64
WIRE 1040 160 1008 160
WIRE -256 176 -336 176
WIRE -160 176 -192 176
WIRE 64 176 -80 176
WIRE 160 176 128 176
WIRE 256 176 160 176
WIRE 704 176 608 176
WIRE -576 192 -576 32
WIRE -336 208 -336 176
WIRE 608 240 608 176
WIRE 624 240 608 240
WIRE 336 256 336 112
WIRE 704 256 704 176
WIRE 704 256 688 256
WIRE 736 256 704 256
WIRE 816 256 800 256
WIRE 928 256 928 160
WIRE 928 256 896 256
WIRE 944 256 928 256
WIRE 336 272 336 256
WIRE 480 272 480 48
WIRE 480 272 336 272
WIRE 528 272 480 272
WIRE 624 272 592 272
WIRE 1040 272 1040 160
WIRE 1040 272 1008 272
WIRE 1168 272 1040 272
WIRE 1280 272 1280 48
WIRE 1280 272 1232 272
WIRE 944 288 912 288
WIRE -576 352 -576 272
WIRE -336 368 -336 288
WIRE 912 368 912 288
FLAG -336 368 0
FLAG 96 192 0
FLAG -576 352 0
FLAG 1200 288 0
FLAG 96 48 0
FLAG -512 672 0
FLAG -400 672 0
FLAG -512 592 V+
FLAG -400 592 V-
FLAG -80 240 0
FLAG -80 96 0
FLAG 912 368 0
FLAG 976 240 V+
FLAG 976 304 V-
FLAG 160 112 0
FLAG 160 256 0
FLAG 656 224 V+
FLAG 656 288 V-
FLAG 720 128 0
FLAG 656 16 V+
FLAG 656 80 V-
FLAG 960 0 V+
FLAG 960 64 V-
FLAG 1040 128 0
FLAG 336 352 0
SYMBOL voltage -336 192 R0
WINDOW 123 0 0 Left 2
WINDOW 39 0 0 Left 2
SYMATTR InstName V1
SYMATTR Value SINE(0 5 1000 0 0 0 2000)
SYMBOL Axon-Hillock 80 176 R0
SYMATTR InstName X1
SYMATTR SpiceLine Rinhibit = 1Mg
SYMBOL Axon-Hillock 80 32 R0
SYMATTR InstName X2
SYMATTR SpiceLine Rinhibit = 10Meg
SYMBOL voltage -576 176 R0
WINDOW 123 0 0 Left 2
WINDOW 39 0 0 Left 2
WINDOW 3 -311 85 Left 2
SYMATTR Value SINE(0 4 100 0 0 0 200)
SYMATTR InstName V2
SYMBOL Synapse 256 176 R0
SYMATTR InstName X3
SYMBOL Synapse 256 32 R0
SYMATTR InstName X4
SYMBOL voltage -512 576 R0
WINDOW 123 0 0 Left 2
WINDOW 39 0 0 Left 2
WINDOW 3 24 84 Left 2
SYMATTR Value 12
SYMATTR InstName V5
SYMBOL voltage -400 576 R0
WINDOW 123 0 0 Left 2
WINDOW 39 0 0 Left 2
WINDOW 3 29 86 Left 2
SYMATTR Value -12
SYMATTR InstName V6
SYMBOL cap -96 176 R0
SYMATTR InstName C1
SYMATTR Value 1µ
SYMBOL res -64 160 R90
WINDOW 0 0 56 VBottom 2
WINDOW 3 32 56 VTop 2
SYMATTR InstName R1
SYMATTR Value 100
SYMBOL diode -256 192 R270
WINDOW 0 32 32 VTop 2
WINDOW 3 0 32 VBottom 2
SYMATTR InstName D3
SYMBOL cap -96 32 R0
SYMATTR InstName C2
SYMATTR Value 1µ
SYMBOL res -64 16 R90
WINDOW 0 0 56 VBottom 2
WINDOW 3 32 56 VTop 2
SYMATTR InstName R4
SYMATTR Value 100
SYMBOL diode -256 48 R270
WINDOW 0 32 32 VTop 2
WINDOW 3 0 32 VBottom 2
SYMATTR InstName D4
SYMBOL Opamps\\OP07 976 208 R0
SYMATTR InstName U1
SYMBOL res 1024 144 R90
WINDOW 0 0 56 VBottom 2
WINDOW 3 32 56 VTop 2
SYMATTR InstName R3
SYMATTR Value 2K
SYMBOL res 144 160 R0
SYMATTR InstName R5
SYMATTR Value 100k
SYMBOL res 144 16 R0
SYMATTR InstName R6
SYMATTR Value 100k
SYMBOL res 912 240 R90
WINDOW 0 0 56 VBottom 2
WINDOW 3 39 54 VTop 2
SYMATTR InstName R2
SYMATTR Value 1k
SYMBOL Opamps\\OP07 656 192 R0
SYMATTR InstName U2
SYMBOL diode 800 240 R90
WINDOW 0 0 32 VBottom 2
WINDOW 3 32 32 VTop 2
SYMATTR InstName D1
SYMBOL diode 592 256 R90
WINDOW 0 0 32 VBottom 2
WINDOW 3 32 32 VTop 2
SYMATTR InstName D2
SYMBOL Opamps\\OP07 656 -16 M0
SYMATTR InstName U3
SYMBOL res 608 -80 M90
WINDOW 0 0 56 VBottom 2
WINDOW 3 32 56 VTop 2
SYMATTR InstName R7
SYMATTR Value 50K
SYMBOL res 720 16 M90
WINDOW 0 0 56 VBottom 2
WINDOW 3 39 54 VTop 2
SYMATTR InstName R8
SYMATTR Value 1k
SYMBOL diode 1072 64 R270
WINDOW 0 32 32 VTop 2
WINDOW 3 0 32 VBottom 2
SYMATTR InstName D5
SYMBOL Opamps\\OP07 960 -32 M0
SYMATTR InstName U4
SYMBOL Axon-Hillock 1184 272 R0
SYMATTR InstName X5
SYMATTR SpiceLine Rinhibit = 1Mg
SYMBOL res 1024 32 R0
SYMATTR InstName R10
SYMATTR Value 10k
SYMBOL res 320 256 R0
SYMATTR InstName R9
SYMATTR Value 10k
TEXT -64 400 Left 2 !.tran 3
