Version 4
SHEET 1 5076 1812
WIRE 4848 -2192 4848 -2240
WIRE 2864 -2128 2864 -2176
WIRE 3840 -2128 3680 -2128
WIRE 4080 -2128 3920 -2128
WIRE 4736 -2112 4720 -2112
WIRE 4800 -2112 4736 -2112
WIRE 4848 -2080 4848 -2096
WIRE 1856 -2064 1696 -2064
WIRE 2096 -2064 1936 -2064
WIRE 4848 -2064 4848 -2080
WIRE 2752 -2048 2736 -2048
WIRE 2784 -2048 2752 -2048
WIRE 2816 -2048 2784 -2048
WIRE 2864 -2016 2864 -2032
WIRE 2864 -2000 2864 -2016
WIRE 3600 -1904 3456 -1904
WIRE 3680 -1904 3664 -1904
WIRE 3856 -1904 3760 -1904
WIRE 4000 -1904 3856 -1904
WIRE 4208 -1904 4128 -1904
WIRE 4320 -1904 4272 -1904
WIRE 4448 -1904 4400 -1904
WIRE 4544 -1904 4448 -1904
WIRE 4848 -1904 4848 -1936
WIRE 4848 -1904 4544 -1904
WIRE 3456 -1888 3456 -1904
WIRE 3856 -1888 3856 -1904
WIRE 4448 -1888 4448 -1904
WIRE 1616 -1840 1472 -1840
WIRE 1696 -1840 1680 -1840
WIRE 1872 -1840 1776 -1840
WIRE 2016 -1840 1872 -1840
WIRE 2224 -1840 2144 -1840
WIRE 2336 -1840 2288 -1840
WIRE 2464 -1840 2416 -1840
WIRE 2560 -1840 2464 -1840
WIRE 2864 -1840 2864 -1872
WIRE 2864 -1840 2560 -1840
WIRE 1472 -1824 1472 -1840
WIRE 1872 -1824 1872 -1840
WIRE 2464 -1824 2464 -1840
WIRE 4848 -1824 4848 -1904
WIRE -896 -1808 -1056 -1808
WIRE -640 -1808 -832 -1808
WIRE 2864 -1760 2864 -1840
WIRE 4736 -1744 4720 -1744
WIRE 4800 -1744 4736 -1744
WIRE 4736 -1728 4736 -1744
WIRE -928 -1680 -960 -1680
WIRE -768 -1680 -800 -1680
WIRE 2752 -1680 2736 -1680
WIRE 2768 -1680 2752 -1680
WIRE 2816 -1680 2768 -1680
WIRE 2752 -1664 2752 -1680
WIRE -1056 -1632 -1056 -1808
WIRE -1008 -1632 -1056 -1632
WIRE -960 -1632 -960 -1680
WIRE -960 -1632 -1008 -1632
WIRE -1360 -1616 -1488 -1616
WIRE -1168 -1616 -1216 -1616
WIRE -1056 -1616 -1056 -1632
WIRE -1056 -1616 -1168 -1616
WIRE -880 -1584 -880 -1600
WIRE -800 -1584 -800 -1680
WIRE -800 -1584 -880 -1584
WIRE -720 -1584 -720 -1600
WIRE -640 -1584 -640 -1808
WIRE -640 -1584 -720 -1584
WIRE -592 -1584 -640 -1584
WIRE -496 -1584 -528 -1584
WIRE -400 -1584 -416 -1584
WIRE -320 -1584 -400 -1584
WIRE -176 -1584 -320 -1584
WIRE -1056 -1568 -1056 -1616
WIRE -880 -1552 -880 -1584
WIRE -720 -1552 -720 -1584
WIRE 4240 -1552 4208 -1552
WIRE 4320 -1552 4304 -1552
WIRE 4448 -1552 4400 -1552
WIRE 4544 -1552 4448 -1552
WIRE 4624 -1552 4544 -1552
WIRE 4848 -1552 4624 -1552
WIRE 4448 -1536 4448 -1552
WIRE 2272 -1488 2240 -1488
WIRE 2352 -1488 2336 -1488
WIRE 2480 -1488 2432 -1488
WIRE 2576 -1488 2480 -1488
WIRE 2656 -1488 2576 -1488
WIRE 2880 -1488 2656 -1488
WIRE -960 -1472 -960 -1632
WIRE -928 -1472 -960 -1472
WIRE -800 -1472 -800 -1584
WIRE -768 -1472 -800 -1472
WIRE 2480 -1472 2480 -1488
WIRE 4848 -1472 4848 -1552
WIRE 2880 -1408 2880 -1488
WIRE 4656 -1392 4560 -1392
WIRE 4736 -1392 4720 -1392
WIRE 4800 -1392 4736 -1392
WIRE -1008 -1376 -1008 -1632
WIRE 4736 -1376 4736 -1392
WIRE 2688 -1328 2592 -1328
WIRE 2768 -1328 2752 -1328
WIRE 2832 -1328 2768 -1328
WIRE 2768 -1312 2768 -1328
WIRE 80 -1296 16 -1296
WIRE 160 -1296 144 -1296
WIRE 512 -1296 160 -1296
WIRE 640 -1296 512 -1296
WIRE -1008 -1280 -1008 -1296
WIRE 160 -1280 160 -1296
WIRE -640 -1200 -640 -1584
WIRE -640 -1200 -960 -1200
WIRE 160 -1200 160 -1216
WIRE -1008 -1136 -1008 -1184
WIRE 0 -1136 -32 -1136
WIRE 16 -1136 16 -1296
WIRE 16 -1136 0 -1136
WIRE 80 -1040 16 -1040
WIRE 160 -1040 144 -1040
WIRE 320 -1040 160 -1040
WIRE 496 -1040 320 -1040
WIRE 640 -1040 496 -1040
WIRE 160 -1024 160 -1040
WIRE 400 -960 400 -1216
WIRE 720 -960 720 -1216
WIRE 160 -944 160 -960
WIRE 336 -944 336 -976
WIRE 656 -944 656 -976
WIRE -16 -928 -32 -928
WIRE 16 -928 16 -1040
WIRE 16 -928 -16 -928
WIRE 336 -928 336 -944
WIRE 656 -928 656 -944
WIRE 1552 -864 1536 -864
WIRE 1648 -864 1632 -864
WIRE 1696 -864 1648 -864
WIRE 1840 -864 1776 -864
WIRE 2000 -848 1824 -848
WIRE 80 -800 16 -800
WIRE 160 -800 144 -800
WIRE 320 -800 160 -800
WIRE 480 -800 320 -800
WIRE 640 -800 480 -800
WIRE 160 -784 160 -800
WIRE 2000 -784 2000 -848
WIRE 2000 -784 1936 -784
WIRE 1648 -768 1648 -864
WIRE 1648 -768 1632 -768
WIRE 1696 -768 1648 -768
WIRE 1824 -768 1824 -848
WIRE 1824 -768 1776 -768
WIRE 1872 -768 1824 -768
WIRE 1504 -752 1328 -752
WIRE 1536 -752 1536 -864
WIRE 1536 -752 1504 -752
WIRE 1568 -752 1536 -752
WIRE 1328 -736 1328 -752
WIRE 1648 -736 1632 -736
WIRE 4032 -736 3872 -736
WIRE 4288 -736 4096 -736
WIRE 400 -720 400 -960
WIRE 720 -720 720 -960
WIRE 1648 -720 1648 -736
WIRE 160 -704 160 -720
WIRE 336 -704 336 -736
WIRE 656 -704 656 -736
WIRE 0 -688 -32 -688
WIRE 16 -688 16 -800
WIRE 16 -688 0 -688
WIRE 336 -688 336 -704
WIRE 656 -688 656 -704
WIRE 4288 -656 4288 -736
WIRE 1328 -624 1328 -736
WIRE 1664 -624 1616 -624
WIRE 1792 -624 1744 -624
WIRE 1968 -608 1936 -608
WIRE 2096 -608 2048 -608
WIRE 4000 -608 3968 -608
WIRE 4160 -608 4128 -608
WIRE 1792 -560 1792 -624
WIRE 2096 -560 2096 -608
WIRE 3872 -560 3872 -736
WIRE 3920 -560 3872 -560
WIRE 3968 -560 3968 -608
WIRE 3968 -560 3920 -560
WIRE 80 -544 16 -544
WIRE 160 -544 144 -544
WIRE 320 -544 160 -544
WIRE 480 -544 320 -544
WIRE 640 -544 480 -544
WIRE 3568 -544 3440 -544
WIRE 3760 -544 3712 -544
WIRE 3872 -544 3872 -560
WIRE 3872 -544 3760 -544
WIRE 160 -528 160 -544
WIRE 2464 -528 2432 -528
WIRE 2592 -528 2544 -528
WIRE 2768 -512 2736 -512
WIRE 2896 -512 2848 -512
WIRE 4048 -512 4048 -528
WIRE 4128 -512 4128 -608
WIRE 4128 -512 4048 -512
WIRE 4208 -512 4208 -528
WIRE 4288 -512 4288 -656
WIRE 4288 -512 4208 -512
WIRE 4336 -512 4288 -512
WIRE 4416 -512 4400 -512
WIRE 4560 -512 4496 -512
WIRE 4656 -512 4560 -512
WIRE 4752 -512 4656 -512
WIRE 0 -496 -32 -496
WIRE 16 -496 16 -544
WIRE 16 -496 0 -496
WIRE 1328 -496 1328 -560
WIRE 1328 -496 1136 -496
WIRE 1616 -496 1616 -624
WIRE 1616 -496 1328 -496
WIRE 1680 -496 1616 -496
WIRE 3872 -496 3872 -544
WIRE 1792 -480 1792 -560
WIRE 1792 -480 1744 -480
WIRE 1840 -480 1792 -480
WIRE 1936 -480 1936 -608
WIRE 1936 -480 1920 -480
WIRE 1984 -480 1936 -480
WIRE 4048 -480 4048 -512
WIRE 4208 -480 4208 -512
WIRE 400 -464 400 -720
WIRE 720 -464 720 -720
WIRE 2096 -464 2096 -560
WIRE 2096 -464 2048 -464
WIRE 2208 -464 2096 -464
WIRE 2288 -464 2272 -464
WIRE 2400 -464 2368 -464
WIRE 2592 -464 2592 -528
WIRE 160 -448 160 -464
WIRE 336 -448 336 -480
WIRE 656 -448 656 -480
WIRE -304 -432 -448 -432
WIRE -160 -432 -304 -432
WIRE 336 -432 336 -448
WIRE 656 -432 656 -448
WIRE 4560 -432 4560 -448
WIRE 4608 -432 4560 -432
WIRE 4656 -432 4608 -432
WIRE 2400 -416 2400 -464
WIRE 2432 -416 2432 -528
WIRE 2432 -416 2400 -416
WIRE 2480 -416 2432 -416
WIRE 2592 -400 2592 -464
WIRE 2592 -400 2544 -400
WIRE 2656 -400 2592 -400
WIRE 2736 -400 2736 -512
WIRE 2784 -400 2736 -400
WIRE 3968 -400 3968 -560
WIRE 4000 -400 3968 -400
WIRE 4128 -400 4128 -512
WIRE 4160 -400 4128 -400
WIRE 4608 -400 4608 -432
WIRE 2896 -384 2896 -512
WIRE 2896 -384 2848 -384
WIRE 3024 -384 2896 -384
WIRE 2288 -352 2272 -352
WIRE 2400 -352 2400 -416
WIRE 2400 -352 2368 -352
WIRE -448 -336 -448 -432
WIRE 2400 -320 2400 -352
WIRE 3920 -304 3920 -560
WIRE 80 -288 16 -288
WIRE 320 -288 144 -288
WIRE 480 -288 320 -288
WIRE 640 -288 480 -288
WIRE 0 -272 -32 -272
WIRE 16 -272 16 -288
WIRE 16 -272 0 -272
WIRE 144 -272 144 -288
WIRE 2240 -224 2224 -224
WIRE 2400 -224 2400 -240
WIRE 2400 -224 2320 -224
WIRE 400 -208 400 -464
WIRE 720 -208 720 -464
WIRE 3920 -208 3920 -224
WIRE -448 -192 -448 -256
WIRE 144 -192 144 -208
WIRE 336 -192 336 -224
WIRE 656 -192 656 -224
WIRE 336 -176 336 -192
WIRE 656 -176 656 -192
WIRE 2224 -128 2224 -224
WIRE 2288 -128 2224 -128
WIRE 4288 -128 4288 -512
WIRE 4288 -128 3968 -128
WIRE 2400 -112 2400 -224
WIRE 2400 -112 2352 -112
WIRE 3920 -64 3920 -112
WIRE 0 -48 -32 -48
WIRE 16 -48 0 -48
WIRE -448 -32 -448 -112
WIRE 16 -32 16 -48
WIRE 80 -32 16 -32
WIRE 320 -32 144 -32
WIRE 480 -32 320 -32
WIRE 640 -32 480 -32
WIRE 144 -16 144 -32
WIRE 1520 0 1504 0
WIRE 1616 0 1600 0
WIRE 1664 0 1616 0
WIRE 1808 0 1744 0
WIRE 1984 16 1808 16
WIRE 400 48 400 -208
WIRE 720 48 720 -208
WIRE 144 64 144 48
WIRE 336 64 336 32
WIRE 656 64 656 32
WIRE 336 80 336 64
WIRE 656 80 656 64
WIRE 1984 80 1984 16
WIRE 1984 80 1920 80
WIRE 1616 96 1616 0
WIRE 1616 96 1600 96
WIRE 1664 96 1616 96
WIRE 1808 96 1808 16
WIRE 1808 96 1744 96
WIRE 1856 96 1808 96
WIRE 1472 112 1312 112
WIRE 1504 112 1504 0
WIRE 1504 112 1472 112
WIRE 1536 112 1504 112
WIRE 1616 128 1600 128
WIRE 1616 144 1616 128
WIRE 4080 160 3920 160
WIRE 4336 160 4144 160
WIRE -16 176 -32 176
WIRE 16 176 -16 176
WIRE 16 224 16 176
WIRE 80 224 16 224
WIRE 320 224 144 224
WIRE 480 224 320 224
WIRE 640 224 480 224
WIRE 4336 224 4336 160
WIRE 144 240 144 224
WIRE 1312 240 1312 112
WIRE 1632 240 1584 240
WIRE 1760 240 1712 240
WIRE 1936 256 1904 256
WIRE 2064 256 2016 256
WIRE 1760 288 1760 240
WIRE 4048 288 4016 288
WIRE 4208 288 4176 288
WIRE 400 304 400 48
WIRE 720 304 720 48
WIRE 2064 304 2064 256
WIRE 144 320 144 304
WIRE 336 320 336 288
WIRE 656 320 656 288
WIRE 336 336 336 320
WIRE 656 336 656 320
WIRE 2432 336 2400 336
WIRE 2560 336 2512 336
WIRE 3920 336 3920 160
WIRE 3968 336 3920 336
WIRE 4016 336 4016 288
WIRE 4016 336 3968 336
WIRE 2736 352 2704 352
WIRE 2864 352 2816 352
WIRE 3616 352 3488 352
WIRE 3808 352 3760 352
WIRE 3920 352 3920 336
WIRE 3920 352 3808 352
WIRE 0 368 -32 368
WIRE 32 368 0 368
WIRE 1312 368 1312 304
WIRE 1312 368 1120 368
WIRE 1584 368 1584 240
WIRE 1584 368 1312 368
WIRE 1648 368 1584 368
WIRE 1760 384 1760 288
WIRE 1760 384 1712 384
WIRE 1808 384 1760 384
WIRE 1904 384 1904 256
WIRE 1904 384 1888 384
WIRE 1952 384 1904 384
WIRE 2560 384 2560 336
WIRE 4096 384 4096 368
WIRE 4176 384 4176 288
WIRE 4176 384 4096 384
WIRE 4256 384 4256 368
WIRE 4336 384 4336 224
WIRE 4336 384 4256 384
WIRE 4384 384 4336 384
WIRE 4464 384 4448 384
WIRE 4608 384 4544 384
WIRE 4704 384 4608 384
WIRE 4800 384 4704 384
WIRE 2064 400 2064 304
WIRE 2064 400 2016 400
WIRE 2176 400 2064 400
WIRE 2256 400 2240 400
WIRE 2368 400 2336 400
WIRE 3920 400 3920 352
WIRE 4096 416 4096 384
WIRE 4256 416 4256 384
WIRE -464 432 -464 416
WIRE -336 432 -336 416
WIRE 2368 448 2368 400
WIRE 2400 448 2400 336
WIRE 2400 448 2368 448
WIRE 2448 448 2400 448
WIRE 2560 464 2560 384
WIRE 2560 464 2512 464
WIRE 2624 464 2560 464
WIRE 2704 464 2704 352
WIRE 2752 464 2704 464
WIRE 4608 464 4608 448
WIRE 4656 464 4608 464
WIRE 4704 464 4656 464
WIRE 32 480 32 368
WIRE 80 480 32 480
WIRE 320 480 144 480
WIRE 480 480 320 480
WIRE 640 480 480 480
WIRE 2864 480 2864 352
WIRE 2864 480 2816 480
WIRE 3008 480 2864 480
WIRE 144 496 144 480
WIRE 4016 496 4016 336
WIRE 4048 496 4016 496
WIRE 4176 496 4176 384
WIRE 4208 496 4176 496
WIRE 4656 496 4656 464
WIRE 2256 512 2240 512
WIRE 2368 512 2368 448
WIRE 2368 512 2336 512
WIRE 2368 544 2368 512
WIRE 400 560 400 304
WIRE 720 560 720 304
WIRE 144 576 144 560
WIRE 336 576 336 544
WIRE 656 576 656 544
WIRE 336 592 336 576
WIRE 656 592 656 576
WIRE 3968 592 3968 336
WIRE 2208 640 2192 640
WIRE 2368 640 2368 624
WIRE 2368 640 2288 640
WIRE 3968 688 3968 672
WIRE 400 720 400 560
WIRE 720 720 720 560
WIRE 2192 736 2192 640
WIRE 2256 736 2192 736
WIRE 2368 752 2368 640
WIRE 2368 752 2320 752
WIRE 4336 768 4336 384
WIRE 4336 768 4016 768
WIRE 3968 832 3968 784
WIRE 304 864 272 864
WIRE 368 864 368 848
WIRE 368 864 304 864
WIRE 752 864 752 848
WIRE 784 864 752 864
WIRE 832 864 784 864
WIRE -32 880 -48 880
WIRE 64 880 48 880
WIRE 144 880 128 880
WIRE 208 880 144 880
WIRE 960 880 896 880
WIRE 976 880 960 880
WIRE 1056 880 1040 880
WIRE 1152 880 1136 880
WIRE 288 896 272 896
WIRE 832 896 816 896
WIRE -48 912 -48 880
WIRE -48 912 -96 912
WIRE 0 912 -48 912
WIRE 1152 912 1152 880
WIRE 1152 912 1104 912
WIRE 1200 912 1152 912
WIRE -48 992 -96 992
WIRE 0 992 0 976
WIRE 0 992 -48 992
WIRE 144 992 144 880
WIRE 208 992 144 992
WIRE 288 992 288 896
WIRE 816 992 816 896
WIRE 960 992 960 880
WIRE 960 992 896 992
WIRE 1104 992 1104 976
WIRE 1152 992 1104 992
WIRE 1200 992 1152 992
WIRE -48 1024 -48 992
WIRE 1152 1024 1152 992
FLAG -448 -32 0
FLAG -464 256 0
FLAG -352 256 0
FLAG -352 176 V+
FLAG -464 176 V-
FLAG -48 1024 0
FLAG 240 912 V+
FLAG 240 848 V-
FLAG -464 416 Label
FLAG 288 1072 0
FLAG -336 416 Label2
FLAG 1152 1024 0
FLAG 864 912 V+
FLAG 816 1072 0
FLAG -48 880 predict
FLAG 1152 880 predict2
FLAG -304 -432 audioin
FLAG 336 -848 0
FLAG 336 -944 Vmem2_1
FLAG 656 -848 0
FLAG 656 -944 Vmem2_2
FLAG 336 -608 0
FLAG 336 -704 Vmem3_1
FLAG 656 -608 0
FLAG 656 -704 Vmem3_2
FLAG 336 -352 0
FLAG 336 -448 Vmem4_1
FLAG 656 -352 0
FLAG 656 -448 Vmem4_2
FLAG 336 -96 0
FLAG 336 -192 Vmem5_1
FLAG 656 -96 0
FLAG 656 -192 Vmem5_2
FLAG 336 160 0
FLAG 336 64 Vmem6_1
FLAG 656 160 0
FLAG 656 64 Vmem6_2
FLAG 336 416 0
FLAG 336 320 Vmem7_1
FLAG 656 416 0
FLAG 656 320 Vmem7_2
FLAG 512 -1296 pre1
FLAG 400 720 post1
FLAG 336 672 0
FLAG 336 576 Vmem8_1
FLAG 656 672 0
FLAG 656 576 Vmem8_2
FLAG 864 848 V-
FLAG 720 720 post2
FLAG -256 256 0
FLAG -256 176 5V+
FLAG 1136 -496 post1
FLAG 3024 -384 nin1
FLAG 4752 -512 nout1
FLAG 1600 -720 V-
FLAG 1600 -784 V+
FLAG 1648 -720 0
FLAG 1712 -448 V-
FLAG 1712 -512 V+
FLAG 2480 -384 0
FLAG 2784 -368 0
FLAG 2512 -432 V+
FLAG 2816 -416 V+
FLAG 2512 -368 V-
FLAG 2816 -352 V-
FLAG 1504 -672 0
FLAG 1680 -464 0
FLAG 1792 -400 0
FLAG 1984 -448 0
FLAG 2096 -384 0
FLAG 2592 -320 0
FLAG 2016 -496 V+
FLAG 2016 -432 V-
FLAG 2320 -80 V-
FLAG 2320 -144 V+
FLAG 2288 -96 0
FLAG 2208 -352 Label
IOPIN 2208 -352 In
FLAG 2144 -128 Label2
IOPIN 2144 -128 In
FLAG 1120 368 post2
FLAG 3008 480 nin2
FLAG 1568 144 V-
FLAG 1568 80 V+
FLAG 1616 144 0
FLAG 1680 416 V-
FLAG 1680 352 V+
FLAG 2448 480 0
FLAG 2752 496 0
FLAG 2480 432 V+
FLAG 2784 448 V+
FLAG 2480 496 V-
FLAG 2784 512 V-
FLAG 1472 192 0
FLAG 1648 400 0
FLAG 1760 464 0
FLAG 1952 416 0
FLAG 2064 480 0
FLAG 2560 544 0
FLAG 1984 368 V+
FLAG 1984 432 V-
FLAG 2288 784 V-
FLAG 2288 720 V+
FLAG 2256 768 0
FLAG 2176 512 Label2
IOPIN 2176 512 In
FLAG 2112 736 Label
IOPIN 2112 736 In
FLAG 784 864 nout2
FLAG 304 864 nout1
FLAG -400 688 testStart
FLAG 1808 0 testStart
FLAG 1840 -864 testStart
FLAG 496 -1040 pre2
FLAG 480 -800 pre3
FLAG 480 -544 pre4
FLAG 480 -288 pre5
FLAG 480 -32 pre6
FLAG 480 224 pre7
FLAG 480 480 pre8
FLAG 1792 -560 a1_1
FLAG 2096 -560 a1_2
FLAG 2400 -464 a1_3
FLAG 2592 -464 a1_4
FLAG 1328 -736 a1_5
FLAG 1760 288 a2_1
FLAG 2064 304 a2_2
FLAG 2368 400 a2_3
FLAG 1312 112 a2_5
FLAG 2560 384 a2_4
FLAG 2560 -1760 0
FLAG 2464 -1760 0
FLAG 1472 -1744 0
FLAG 1872 -1760 0
FLAG 2016 -1760 0
FLAG 2144 -1760 0
FLAG 2016 -1840 Vin1
FLAG 2864 -1584 0
FLAG 1472 -1840 Vspk1
FLAG 2752 -1584 0
FLAG 2752 -1968 0
FLAG 4544 -1824 0
FLAG 4448 -1824 0
FLAG 3456 -1808 0
FLAG 3856 -1824 0
FLAG 4000 -1824 0
FLAG 4128 -1824 0
FLAG 4000 -1904 Vin2
FLAG 4848 -1648 0
FLAG 3456 -1904 Vspk2
FLAG 4736 -1648 0
FLAG 4736 -2032 0
FLAG 2784 -2048 VpB
FLAG 2768 -1680 VnB
FLAG 2864 -2256 0
FLAG 4848 -2320 0
FLAG 2592 -1248 0
FLAG 2576 -1408 0
FLAG 2480 -1408 0
FLAG 2240 -1408 0
FLAG 2880 -1232 0
FLAG 2768 -1232 0
FLAG 2656 -1488 Vmem1
FLAG 4560 -1312 0
FLAG 4544 -1472 0
FLAG 4448 -1472 0
FLAG 4208 -1472 0
FLAG 4848 -1296 0
FLAG 4736 -1296 0
FLAG 4624 -1552 Vmem2
FLAG 2672 -2048 0
FLAG 2672 -1680 0
FLAG 4656 -1744 0
FLAG 4656 -2112 0
FLAG 160 -1120 0
FLAG 160 -864 0
FLAG 160 -624 0
FLAG 160 -368 0
FLAG 144 -112 0
FLAG 144 144 0
FLAG 144 400 0
FLAG 144 656 0
FLAG 1696 -2064 pre1
FLAG 2096 -2064 post1
FLAG 3680 -2128 pre1
FLAG 4080 -2128 post2
FLAG 3872 -432 0
FLAG 4048 -624 5V+
FLAG 4208 -624 5V+
FLAG 4208 -384 0
FLAG 4048 -384 0
FLAG 3920 -64 0
FLAG 4608 -400 0
FLAG 3760 -464 0
FLAG 3920 464 0
FLAG 4096 272 5V+
FLAG 4256 272 5V+
FLAG 4256 512 0
FLAG 4096 512 0
FLAG 3968 832 0
FLAG 4656 496 0
FLAG 3808 432 0
FLAG 3488 352 nin2
FLAG 3440 -544 nin1
FLAG 4800 384 nout2
FLAG 3968 -608 Vnmem1
FLAG 4016 288 Vnmem2
FLAG 4288 -656 Vnout1
FLAG 4336 224 Vnout2
FLAG 1904 -800 V+
FLAG 1904 -736 V-
FLAG 1936 -752 nout1
FLAG 1888 64 V+
FLAG 1888 128 V-
FLAG 1920 112 nout2
FLAG 0 -1136 F1
FLAG -16 -928 F2
FLAG 0 -688 F3
FLAG 0 -496 F4
FLAG 0 -272 F5
FLAG 0 -48 F6
FLAG -16 176 F7
FLAG 0 368 F8
FLAG -1056 -1504 0
FLAG -880 -1696 5V+
FLAG -720 -1696 5V+
FLAG -720 -1456 0
FLAG -880 -1456 0
FLAG -1008 -1136 0
FLAG -1168 -1536 0
FLAG -1488 -1616 F1
FLAG -176 -1584 pre1
FLAG -400 -1504 0
FLAG -320 -1520 0
SYMBOL Synapse 400 -960 R180
SYMATTR InstName X2
SYMBOL AHP 80 -1040 R0
SYMATTR InstName X3
SYMATTR SpiceLine Rinhibition = 1Meg
SYMBOL Synapse 400 304 R180
SYMATTR InstName X17
SYMBOL AHP 80 224 R0
SYMATTR InstName X18
SYMATTR SpiceLine Rinhibition = 1Meg
SYMBOL Synapse 720 -960 R180
SYMATTR InstName X20
SYMBOL Synapse 720 304 R180
SYMATTR InstName X27
SYMBOL OutputLabels -496 528 R0
SYMATTR InstName X11
SYMBOL voltage -448 -352 R0
SYMATTR InstName AudioTrain
SYMATTR Value wavefile=V_train.wav
SYMBOL voltage -448 -208 R0
SYMATTR InstName AudioTest
SYMATTR Value wavefile=V_test.wav
SYMBOL FilterBank -160 464 R0
SYMATTR InstName X12
SYMBOL voltage -352 160 R0
WINDOW 123 0 0 Left 2
WINDOW 39 0 0 Left 2
SYMATTR InstName V1
SYMATTR Value 12
SYMBOL voltage -464 160 R0
WINDOW 123 0 0 Left 2
WINDOW 39 0 0 Left 2
SYMATTR InstName V2
SYMATTR Value -12
SYMBOL res -112 896 R0
SYMATTR InstName R14
SYMATTR Value 50k
SYMBOL cap -16 912 R0
SYMATTR InstName C1
SYMATTR Value 5µ
SYMBOL Opamps\\OP07 240 944 R180
SYMATTR InstName U2
SYMBOL diode 128 864 R90
WINDOW 0 0 32 VBottom 2
WINDOW 3 32 32 VTop 2
SYMATTR InstName D2
SYMBOL res 64 864 R90
WINDOW 0 0 56 VBottom 2
WINDOW 3 32 56 VTop 2
SYMATTR InstName R18
SYMATTR Value 10k
SYMBOL Synapse 400 -720 R180
SYMATTR InstName X6
SYMBOL AHP 80 -800 R0
SYMATTR InstName X7
SYMATTR SpiceLine Rinhibition = 1Meg
SYMBOL Synapse 720 -720 R180
SYMATTR InstName X9
SYMBOL Synapse 400 -464 R180
SYMATTR InstName X10
SYMBOL AHP 80 -544 R0
SYMATTR InstName X13
SYMATTR SpiceLine Rinhibition = 1Meg
SYMBOL Synapse 720 -464 R180
SYMATTR InstName X14
SYMBOL Synapse 400 -208 R180
SYMATTR InstName X15
SYMBOL AHP 80 -288 R0
SYMATTR InstName X16
SYMATTR SpiceLine Rinhibition = 1Meg
SYMBOL Synapse 720 -208 R180
SYMATTR InstName X19
SYMBOL Synapse 400 48 R180
SYMATTR InstName X21
SYMBOL AHP 80 -32 R0
SYMATTR InstName X22
SYMATTR SpiceLine Rinhibition = 1Meg
SYMBOL Synapse 720 48 R180
SYMATTR InstName X23
SYMBOL Synapse 400 560 R180
SYMATTR InstName X24
SYMBOL AHP 80 480 R0
SYMATTR InstName X25
SYMATTR SpiceLine Rinhibition = 1Meg
SYMBOL Synapse 720 560 R180
SYMATTR InstName X26
SYMBOL res 272 976 R0
SYMATTR InstName R36
SYMATTR Value 1k
SYMBOL res 304 976 R90
WINDOW 0 0 56 VBottom 2
WINDOW 3 32 56 VTop 2
SYMATTR InstName R37
SYMATTR Value 5k
SYMBOL res 1216 896 M0
SYMATTR InstName R15
SYMATTR Value 50k
SYMBOL cap 1120 912 M0
SYMATTR InstName C2
SYMATTR Value 5µ
SYMBOL Opamps\\OP07 864 944 M180
SYMATTR InstName U1
SYMBOL diode 976 864 M90
WINDOW 0 0 32 VBottom 2
WINDOW 3 32 32 VTop 2
SYMATTR InstName D1
SYMBOL res 1040 864 M90
WINDOW 0 0 56 VBottom 2
WINDOW 3 32 56 VTop 2
SYMATTR InstName R16
SYMATTR Value 10k
SYMBOL res 832 976 M0
SYMATTR InstName R55
SYMATTR Value 1k
SYMBOL res 800 976 M90
WINDOW 0 0 56 VBottom 2
WINDOW 3 32 56 VTop 2
SYMATTR InstName R56
SYMATTR Value 5k
SYMBOL res 352 -944 M0
SYMATTR InstName R3
SYMATTR Value 1000G
SYMBOL res 672 -944 M0
SYMATTR InstName R4
SYMATTR Value 1000G
SYMBOL res 352 -704 M0
SYMATTR InstName R5
SYMATTR Value 1000G
SYMBOL res 672 -704 M0
SYMATTR InstName R6
SYMATTR Value 1000G
SYMBOL res 352 -448 M0
SYMATTR InstName R7
SYMATTR Value 1000G
SYMBOL res 672 -448 M0
SYMATTR InstName R8
SYMATTR Value 1000G
SYMBOL res 352 -192 M0
SYMATTR InstName R9
SYMATTR Value 1000G
SYMBOL res 672 -192 M0
SYMATTR InstName R10
SYMATTR Value 1000G
SYMBOL res 352 64 M0
SYMATTR InstName R11
SYMATTR Value 1000G
SYMBOL res 672 64 M0
SYMATTR InstName R12
SYMATTR Value 1000G
SYMBOL res 352 320 M0
SYMATTR InstName R13
SYMATTR Value 1000G
SYMBOL res 672 320 M0
SYMATTR InstName R17
SYMATTR Value 1000G
SYMBOL res 352 576 M0
SYMATTR InstName R70
SYMATTR Value 1000G
SYMBOL res 672 576 M0
SYMATTR InstName R19
SYMATTR Value 1000G
SYMBOL voltage -256 160 R0
WINDOW 123 0 0 Left 2
WINDOW 39 0 0 Left 2
SYMATTR InstName V3
SYMATTR Value 5
SYMBOL Opamps\\UniversalOpamp2 1600 -752 M0
SYMATTR InstName U3
SYMBOL res 1536 -880 M90
WINDOW 0 0 56 VBottom 2
WINDOW 3 -16 22 VTop 2
SYMATTR InstName R20
SYMATTR Value 1k
SYMBOL res 1680 -784 M90
WINDOW 0 0 56 VBottom 2
WINDOW 3 32 56 VTop 2
SYMATTR InstName R21
SYMATTR Value 1K
SYMBOL Opamps\\UniversalOpamp2 1712 -480 R0
SYMATTR InstName U4
SYMBOL diode 1344 -560 R180
WINDOW 0 24 64 Left 2
WINDOW 3 24 0 Left 2
SYMATTR InstName D3
SYMBOL diode 2208 -448 R270
WINDOW 0 32 32 VTop 2
WINDOW 3 0 32 VBottom 2
SYMATTR InstName D4
SYMBOL Opamps\\OP07 2512 -464 R0
SYMATTR InstName U5
SYMBOL res 2384 -480 R90
WINDOW 0 0 56 VBottom 2
WINDOW 3 32 56 VTop 2
SYMATTR InstName R22
SYMATTR Value 1.75k
SYMBOL res 2384 -368 R90
WINDOW 0 0 56 VBottom 2
WINDOW 3 32 56 VTop 2
SYMATTR InstName R23
SYMATTR Value 1.2k
SYMBOL res 2560 -544 R90
WINDOW 0 0 56 VBottom 2
WINDOW 3 32 56 VTop 2
SYMATTR InstName R24
SYMATTR Value 1.5k
SYMBOL Opamps\\OP07 2816 -448 R0
SYMATTR InstName U6
SYMBOL res 2864 -528 R90
WINDOW 0 0 56 VBottom 2
WINDOW 3 32 56 VTop 2
SYMATTR InstName R25
SYMATTR Value 10k
SYMBOL res 2752 -416 R90
WINDOW 0 0 56 VBottom 2
WINDOW 3 32 56 VTop 2
SYMATTR InstName R26
SYMATTR Value 10k
SYMBOL diode 2208 -336 R270
WINDOW 0 32 32 VTop 2
WINDOW 3 0 32 VBottom 2
SYMATTR InstName D5
SYMBOL res 1488 -768 R0
SYMATTR InstName R27
SYMATTR Value 10k
SYMBOL res 1776 -496 R0
SYMATTR InstName R28
SYMATTR Value 10k
SYMBOL res 1760 -640 R90
WINDOW 0 0 56 VBottom 2
WINDOW 3 32 56 VTop 2
SYMATTR InstName R29
SYMATTR Value 2Meg
SYMBOL Opamps\\UniversalOpamp2 2016 -464 R0
SYMATTR InstName U7
SYMBOL res 2080 -480 R0
SYMATTR InstName R30
SYMATTR Value 10k
SYMBOL res 2064 -624 R90
WINDOW 0 0 56 VBottom 2
WINDOW 3 32 56 VTop 2
SYMATTR InstName R31
SYMATTR Value 2Meg
SYMBOL res 1936 -496 R90
WINDOW 0 0 56 VBottom 2
WINDOW 3 32 56 VTop 2
SYMATTR InstName R32
SYMATTR Value 125
SYMBOL res 2576 -416 R0
SYMATTR InstName R33
SYMATTR Value 10k
SYMBOL Opamps\\UniversalOpamp2 2320 -112 R0
SYMATTR InstName U8
SYMBOL res 2240 -144 R90
WINDOW 0 0 56 VBottom 2
WINDOW 3 32 56 VTop 2
SYMATTR InstName R34
SYMATTR Value 1k
SYMBOL res 2336 -240 R90
WINDOW 0 0 56 VBottom 2
WINDOW 3 32 56 VTop 2
SYMATTR InstName R35
SYMATTR Value 3k
SYMBOL res 2384 -336 R0
SYMATTR InstName R38
SYMATTR Value 1k
SYMBOL Opamps\\UniversalOpamp2 1568 112 M0
SYMATTR InstName U9
SYMBOL res 1504 -16 M90
WINDOW 0 0 56 VBottom 2
WINDOW 3 -16 22 VTop 2
SYMATTR InstName R39
SYMATTR Value 1k
SYMBOL res 1648 80 M90
WINDOW 0 0 56 VBottom 2
WINDOW 3 32 56 VTop 2
SYMATTR InstName R40
SYMATTR Value 1k
SYMBOL Opamps\\UniversalOpamp2 1680 384 R0
SYMATTR InstName U10
SYMBOL diode 1328 304 R180
WINDOW 0 24 64 Left 2
WINDOW 3 24 0 Left 2
SYMATTR InstName D6
SYMBOL diode 2176 416 R270
WINDOW 0 32 32 VTop 2
WINDOW 3 0 32 VBottom 2
SYMATTR InstName D7
SYMBOL Opamps\\OP07 2480 400 R0
SYMATTR InstName U11
SYMBOL res 2352 384 R90
WINDOW 0 0 56 VBottom 2
WINDOW 3 32 56 VTop 2
SYMATTR InstName R41
SYMATTR Value 1.75k
SYMBOL res 2352 496 R90
WINDOW 0 0 56 VBottom 2
WINDOW 3 32 56 VTop 2
SYMATTR InstName R42
SYMATTR Value 1.2k
SYMBOL res 2528 320 R90
WINDOW 0 0 56 VBottom 2
WINDOW 3 32 56 VTop 2
SYMATTR InstName R43
SYMATTR Value 1.5k
SYMBOL Opamps\\OP07 2784 416 R0
SYMATTR InstName U12
SYMBOL res 2832 336 R90
WINDOW 0 0 56 VBottom 2
WINDOW 3 32 56 VTop 2
SYMATTR InstName R44
SYMATTR Value 10k
SYMBOL res 2720 448 R90
WINDOW 0 0 56 VBottom 2
WINDOW 3 32 56 VTop 2
SYMATTR InstName R45
SYMATTR Value 10k
SYMBOL diode 2176 528 R270
WINDOW 0 32 32 VTop 2
WINDOW 3 0 32 VBottom 2
SYMATTR InstName D8
SYMBOL res 1456 96 R0
SYMATTR InstName R46
SYMATTR Value 10k
SYMBOL res 1744 368 R0
SYMATTR InstName R47
SYMATTR Value 10k
SYMBOL res 1728 224 R90
WINDOW 0 0 56 VBottom 2
WINDOW 3 32 56 VTop 2
SYMATTR InstName R48
SYMATTR Value 2Meg
SYMBOL Opamps\\UniversalOpamp2 1984 400 R0
SYMATTR InstName U13
SYMBOL res 2048 384 R0
SYMATTR InstName R49
SYMATTR Value 10k
SYMBOL res 2032 240 R90
WINDOW 0 0 56 VBottom 2
WINDOW 3 32 56 VTop 2
SYMATTR InstName R50
SYMATTR Value 2Meg
SYMBOL res 1904 368 R90
WINDOW 0 0 56 VBottom 2
WINDOW 3 32 56 VTop 2
SYMATTR InstName R51
SYMATTR Value 125
SYMBOL res 2544 448 R0
SYMATTR InstName R52
SYMATTR Value 10k
SYMBOL Opamps\\UniversalOpamp2 2288 752 R0
SYMATTR InstName U14
SYMBOL res 2208 720 R90
WINDOW 0 0 56 VBottom 2
WINDOW 3 32 56 VTop 2
SYMATTR InstName R53
SYMATTR Value 1k
SYMBOL res 2304 624 R90
WINDOW 0 0 56 VBottom 2
WINDOW 3 32 56 VTop 2
SYMATTR InstName R54
SYMATTR Value 3k
SYMBOL res 2352 528 R0
SYMATTR InstName R57
SYMATTR Value 1k
SYMBOL res 1680 -880 M90
WINDOW 0 0 56 VBottom 2
WINDOW 3 32 56 VTop 2
SYMATTR InstName R58
SYMATTR Value 1k
SYMBOL res 1648 -16 M90
WINDOW 0 0 56 VBottom 2
WINDOW 3 32 56 VTop 2
SYMATTR InstName R59
SYMATTR Value 1k
SYMBOL StartTestLabel -512 736 R0
SYMATTR InstName X8
SYMBOL res 2032 -1744 R180
WINDOW 0 36 76 Left 2
WINDOW 3 36 40 Left 2
SYMATTR InstName R60
SYMATTR Value 10K
SYMBOL cap 2448 -1824 R0
WINDOW 3 25 53 Left 2
SYMATTR Value 0.8n
SYMATTR InstName C3
SYMATTR SpiceLine V=16 Irms=7.41 Rser=0.000 Lser=0
SYMBOL res 2576 -1744 R180
WINDOW 0 -38 58 Left 2
WINDOW 3 -110 34 Left 2
SYMATTR InstName R61
SYMATTR Value 10000Meg
SYMBOL bv 1472 -1840 R0
WINDOW 0 -52 16 Left 2
WINDOW 3 -275 79 Left 2
SYMATTR InstName B1
SYMATTR Value V=-2*(v(post1)-v(pre1))
SYMBOL res 1952 -2080 R90
WINDOW 0 0 56 VBottom 2
WINDOW 3 -69 27 VTop 2
SYMATTR InstName R62
SYMATTR Value R=1/(v(Vmem1)+0.0005)*6426871-691000
SYMBOL res 2432 -1856 R90
WINDOW 0 0 56 VBottom 2
WINDOW 3 32 56 VTop 2
SYMATTR InstName R63
SYMATTR Value 50000Meg
SYMBOL cap 1856 -1824 R0
WINDOW 3 -61 51 Left 2
SYMATTR Value .1µ
SYMATTR InstName C4
SYMATTR SpiceLine V=16 Irms=7.41 Rser=0.000 Lser=0
SYMBOL diode 1616 -1824 R270
WINDOW 0 32 32 VTop 2
WINDOW 3 0 32 VBottom 2
SYMATTR InstName D9
SYMATTR Value OGN4148
SYMBOL res 1792 -1856 R90
WINDOW 0 0 56 VBottom 2
WINDOW 3 32 56 VTop 2
SYMATTR InstName R64
SYMATTR Value 10K
SYMBOL bv 2144 -1856 R0
WINDOW 0 -52 16 Left 2
WINDOW 3 28 94 Left 2
SYMATTR InstName B2
SYMATTR Value V=v(Vin1)
SYMBOL diode 2224 -1824 R270
WINDOW 0 32 32 VTop 2
WINDOW 3 0 32 VBottom 2
SYMATTR InstName D10
SYMATTR Value OGN4148
SYMBOL nmos 2816 -1760 R0
SYMATTR InstName M1
SYMBOL res 2848 -1680 R0
SYMATTR InstName R65
SYMATTR Value 20Meg
SYMBOL res 2880 -1856 R180
WINDOW 0 36 76 Left 2
WINDOW 3 36 40 Left 2
SYMATTR InstName R66
SYMATTR Value 50Meg
SYMBOL pmos 2816 -2128 R0
SYMATTR InstName M2
SYMBOL diode 2848 -2016 R0
SYMATTR InstName D11
SYMBOL cap 2736 -1696 R90
WINDOW 0 0 32 VBottom 2
WINDOW 3 32 32 VTop 2
SYMATTR InstName C5
SYMATTR Value 0.1n
SYMBOL res 2736 -1680 R0
SYMATTR InstName R67
SYMATTR Value 50k
SYMBOL cap 2736 -2064 R90
WINDOW 0 0 32 VBottom 2
WINDOW 3 32 32 VTop 2
SYMATTR InstName C6
SYMATTR Value 0.1n
SYMBOL res 2736 -2064 R0
SYMATTR InstName R68
SYMATTR Value 50k
SYMBOL res 4016 -1808 R180
WINDOW 0 36 76 Left 2
WINDOW 3 36 40 Left 2
SYMATTR InstName R69
SYMATTR Value 10K
SYMBOL cap 4432 -1888 R0
WINDOW 3 25 53 Left 2
SYMATTR Value 0.8n
SYMATTR InstName C7
SYMATTR SpiceLine V=16 Irms=7.41 Rser=0.000 Lser=0
SYMBOL res 4560 -1808 R180
WINDOW 0 -38 58 Left 2
WINDOW 3 -110 34 Left 2
SYMATTR InstName R71
SYMATTR Value 10000Meg
SYMBOL bv 3456 -1904 R0
WINDOW 0 -52 16 Left 2
WINDOW 3 -275 79 Left 2
SYMATTR InstName B3
SYMATTR Value V=-2*(v(post2)-v(pre1))
SYMBOL res 3936 -2144 R90
WINDOW 0 0 56 VBottom 2
WINDOW 3 -69 27 VTop 2
SYMATTR InstName R72
SYMATTR Value R=1/(v(Vmem2)+0.0005)*6426871-691000
SYMBOL res 4416 -1920 R90
WINDOW 0 0 56 VBottom 2
WINDOW 3 32 56 VTop 2
SYMATTR InstName R73
SYMATTR Value 50000Meg
SYMBOL cap 3840 -1888 R0
WINDOW 3 -61 51 Left 2
SYMATTR Value .1µ
SYMATTR InstName C8
SYMATTR SpiceLine V=16 Irms=7.41 Rser=0.000 Lser=0
SYMBOL diode 3600 -1888 R270
WINDOW 0 32 32 VTop 2
WINDOW 3 0 32 VBottom 2
SYMATTR InstName D12
SYMATTR Value OGN4148
SYMBOL res 3776 -1920 R90
WINDOW 0 0 56 VBottom 2
WINDOW 3 32 56 VTop 2
SYMATTR InstName R74
SYMATTR Value 10K
SYMBOL bv 4128 -1920 R0
WINDOW 0 -52 16 Left 2
WINDOW 3 28 94 Left 2
SYMATTR InstName B4
SYMATTR Value V=v(Vin2)
SYMBOL diode 4208 -1888 R270
WINDOW 0 32 32 VTop 2
WINDOW 3 0 32 VBottom 2
SYMATTR InstName D13
SYMATTR Value OGN4148
SYMBOL nmos 4800 -1824 R0
SYMATTR InstName M3
SYMBOL res 4832 -1744 R0
SYMATTR InstName R75
SYMATTR Value 20Meg
SYMBOL res 4864 -1920 R180
WINDOW 0 36 76 Left 2
WINDOW 3 36 40 Left 2
SYMATTR InstName R76
SYMATTR Value 50Meg
SYMBOL pmos 4800 -2192 R0
SYMATTR InstName M4
SYMBOL diode 4832 -2080 R0
SYMATTR InstName D14
SYMBOL cap 4720 -1760 R90
WINDOW 0 0 32 VBottom 2
WINDOW 3 32 32 VTop 2
SYMATTR InstName C9
SYMATTR Value 0.1n
SYMBOL res 4720 -1744 R0
SYMATTR InstName R77
SYMATTR Value 50k
SYMBOL cap 4720 -2128 R90
WINDOW 0 0 32 VBottom 2
WINDOW 3 32 32 VTop 2
SYMATTR InstName C10
SYMATTR Value 0.1n
SYMBOL res 4720 -2128 R0
SYMATTR InstName R78
SYMATTR Value 50k
SYMBOL bv 2864 -2160 R180
WINDOW 0 24 96 Left 2
WINDOW 3 24 16 Left 2
SYMATTR InstName B5
SYMATTR Value V=v(Vin1)
SYMBOL bv 4848 -2224 R180
WINDOW 0 24 96 Left 2
WINDOW 3 24 16 Left 2
SYMATTR InstName B6
SYMATTR Value V=v(Vin2)
SYMBOL bv 2592 -1344 R0
WINDOW 0 -52 16 Left 2
WINDOW 3 -192 88 Left 2
SYMATTR InstName B7
SYMATTR Value V = abs(V(Vspk1))
SYMBOL cap 2464 -1472 R0
WINDOW 3 25 53 Left 2
SYMATTR Value 0.8n
SYMATTR InstName C11
SYMATTR SpiceLine V=16 Irms=7.41 Rser=0.000 Lser=0
SYMBOL res 2592 -1392 R180
WINDOW 0 -38 58 Left 2
WINDOW 3 -110 34 Left 2
SYMATTR InstName R2
SYMATTR Value 10000Meg
SYMBOL res 2448 -1504 R90
WINDOW 0 0 56 VBottom 2
WINDOW 3 32 56 VTop 2
SYMATTR InstName R79
SYMATTR Value 50Meg
SYMBOL bv 2240 -1504 R0
WINDOW 0 -52 16 Left 2
WINDOW 3 28 94 Left 2
SYMATTR InstName B9
SYMATTR Value V=v(Vin1)
SYMBOL nmos 2832 -1408 R0
SYMATTR InstName M5
SYMBOL res 2864 -1328 R0
SYMATTR InstName R80
SYMATTR Value 20Meg
SYMBOL cap 2752 -1344 R90
WINDOW 0 0 32 VBottom 2
WINDOW 3 32 32 VTop 2
SYMATTR InstName C12
SYMATTR Value 0.1n
SYMBOL res 2752 -1328 R0
SYMATTR InstName R81
SYMATTR Value 50k
SYMBOL diode 2272 -1472 R270
WINDOW 0 32 32 VTop 2
WINDOW 3 0 32 VBottom 2
SYMATTR InstName D19
SYMBOL bv 4560 -1408 R0
WINDOW 0 -52 16 Left 2
WINDOW 3 -192 88 Left 2