Version 4
SHEET 1 2160 1304
WIRE -32 -1024 -96 -1024
WIRE -80 -816 -96 -816
WIRE 80 -816 -16 -816
WIRE 80 -800 80 -816
WIRE 176 -800 80 -800
WIRE 320 -800 240 -800
WIRE 544 -800 320 -800
WIRE -32 -576 -96 -576
WIRE -32 -384 -96 -384
WIRE -224 -320 -544 -320
WIRE -544 -224 -544 -320
WIRE -32 -160 -96 -160
WIRE -544 -80 -544 -144
WIRE -32 64 -96 64
WIRE -544 80 -544 0
WIRE -32 240 -64 240
WIRE 80 240 32 240
WIRE 160 240 80 240
WIRE 320 240 224 240
WIRE 544 240 320 240
WIRE -64 288 -64 240
WIRE -64 288 -96 288
WIRE 400 320 400 -720
WIRE 624 320 624 -720
WIRE -32 480 -96 480
WIRE 192 592 -16 592
WIRE 400 592 400 320
WIRE 624 592 624 320
WIRE 960 592 752 592
WIRE 192 688 192 592
WIRE 192 688 128 688
WIRE 752 688 752 592
WIRE 816 688 752 688
WIRE -112 704 -128 704
WIRE -16 704 -16 592
WIRE -16 704 -32 704
WIRE 64 704 -16 704
WIRE 960 704 960 592
WIRE 960 704 880 704
WIRE 1088 704 1040 704
WIRE 176 720 128 720
WIRE 272 720 240 720
WIRE 704 720 656 720
WIRE 816 720 768 720
WIRE -128 736 -128 704
WIRE -128 736 -176 736
WIRE -80 736 -128 736
WIRE 432 736 432 720
WIRE 496 736 432 736
WIRE 1088 736 1088 704
WIRE 1088 736 1040 736
WIRE 1136 736 1088 736
WIRE 368 784 368 720
WIRE 432 784 432 736
WIRE 592 784 592 720
WIRE 656 784 656 720
WIRE -128 816 -176 816
WIRE -80 816 -80 800
WIRE -80 816 -128 816
WIRE 1088 816 1040 816
WIRE 1136 816 1136 800
WIRE 1136 816 1088 816
WIRE -128 848 -128 816
WIRE 1088 848 1088 816
WIRE 272 864 272 720
WIRE 496 864 496 736
WIRE 496 864 272 864
WIRE 320 912 320 656
WIRE 544 912 544 656
FLAG 80 -720 0
FLAG 208 -784 0
FLAG 80 320 0
FLAG 192 256 0
FLAG 400 800 0
FLAG 624 800 0
FLAG -544 80 0
FLAG 48 -1024 0
FLAG 48 -576 0
FLAG 48 -384 0
FLAG 48 -160 0
FLAG 48 64 0
FLAG 48 480 0
FLAG 768 832 0
FLAG 992 832 0
FLAG 1216 832 0
FLAG 1440 832 0
FLAG 1664 832 0
FLAG 1888 832 0
FLAG -304 1200 0
FLAG -192 1200 0
FLAG -192 1120 V+
FLAG -304 1120 V-
FLAG -128 848 0
FLAG 1088 848 0
FLAG 848 672 V+
FLAG 848 736 V-
FLAG 96 672 V+
FLAG 96 736 V-
SYMBOL Synapse 400 -720 R180
SYMATTR InstName X2
SYMBOL res 64 -816 R0
SYMATTR InstName R17
SYMATTR Value 1Meg
SYMBOL BiDirectionlAmp 400 656 R0
SYMATTR InstName X8
SYMBOL AHP 176 -800 R0
SYMATTR InstName X3
SYMATTR SpiceLine Rinhibition = 1Meg
SYMBOL Synapse 400 320 R180
SYMATTR InstName X17
SYMBOL res 96 336 R180
WINDOW 0 36 76 Left 2
WINDOW 3 36 40 Left 2
SYMATTR InstName R6
SYMATTR Value 1Meg
SYMBOL AHP 160 240 R0
SYMATTR InstName X18
SYMATTR SpiceLine Rinhibition = 1Meg
SYMBOL Synapse 624 -720 R180
SYMATTR InstName X20
SYMBOL Synapse 624 320 R180
SYMATTR InstName X27
SYMBOL BiDirectionlAmp 624 656 R0
SYMATTR InstName X28
SYMBOL AHP 368 784 R0
WINDOW 0 49 32 Left 2
SYMATTR InstName X83
SYMATTR SpiceLine Rinhibition = 1Meg
SYMBOL AHP 592 784 R0
WINDOW 0 50 33 Left 2
SYMATTR InstName X84
SYMATTR SpiceLine Rinhibition = 1Meg
SYMBOL OutputLabels 288 1024 R0
SYMATTR InstName X11
SYMBOL voltage -544 -240 R0
SYMATTR InstName AudioTrain
SYMATTR Value wavefile=V_train.wav
SYMBOL voltage -544 -96 R0
SYMATTR InstName AudioTest
SYMATTR Value wavefile=V_test.wav
SYMBOL FilterBank -224 576 R0
SYMATTR InstName X12
SYMBOL diode -80 -800 R270
WINDOW 0 32 32 VTop 2
WINDOW 3 0 32 VBottom 2
SYMATTR InstName D10
SYMBOL diode -32 256 R270
WINDOW 0 32 32 VTop 2
WINDOW 3 0 32 VBottom 2
SYMATTR InstName D15
SYMBOL res 64 -1040 R90
WINDOW 0 0 56 VBottom 2
WINDOW 3 32 56 VTop 2
SYMATTR InstName R1
SYMATTR Value 1Meg
SYMBOL res 64 -592 R90
WINDOW 0 0 56 VBottom 2
WINDOW 3 32 56 VTop 2
SYMATTR InstName R2
SYMATTR Value 1Meg
SYMBOL res 64 -400 R90
WINDOW 0 0 56 VBottom 2
WINDOW 3 32 56 VTop 2
SYMATTR InstName R3
SYMATTR Value 1Meg
SYMBOL res 64 -176 R90
WINDOW 0 0 56 VBottom 2
WINDOW 3 32 56 VTop 2
SYMATTR InstName R4
SYMATTR Value 1Meg
SYMBOL res 64 48 R90
WINDOW 0 0 56 VBottom 2
WINDOW 3 32 56 VTop 2
SYMATTR InstName R5
SYMATTR Value 1Meg
SYMBOL res 64 464 R90
WINDOW 0 0 56 VBottom 2
WINDOW 3 32 56 VTop 2
SYMATTR InstName R7
SYMATTR Value 1Meg
SYMBOL res 752 816 R0
SYMATTR InstName R8
SYMATTR Value 1Meg
SYMBOL res 976 816 R0
SYMATTR InstName R9
SYMATTR Value 1Meg
SYMBOL res 1200 816 R0
SYMATTR InstName R10
SYMATTR Value 1Meg
SYMBOL res 1424 816 R0
SYMATTR InstName R11
SYMATTR Value 1Meg
SYMBOL res 1648 816 R0
SYMATTR InstName R12
SYMATTR Value 1Meg
SYMBOL res 1872 816 R0
SYMATTR InstName R13
SYMATTR Value 1Meg
SYMBOL voltage -192 1104 R0
WINDOW 123 0 0 Left 2
WINDOW 39 0 0 Left 2
SYMATTR InstName V1
SYMATTR Value 12
SYMBOL voltage -304 1104 R0
WINDOW 123 0 0 Left 2
WINDOW 39 0 0 Left 2
SYMATTR InstName V2
SYMATTR Value -12
SYMBOL res -192 720 R0
SYMATTR InstName R14
SYMATTR Value 100k
SYMBOL cap -96 736 R0
SYMATTR InstName C1
SYMATTR Value 10u
SYMBOL res 1024 720 R0
SYMATTR InstName R15
SYMATTR Value 100k
SYMBOL cap 1120 736 R0
SYMATTR InstName C2
SYMATTR Value 10u
SYMBOL Opamps\\OP07 848 640 R0
SYMATTR InstName U1
SYMBOL Opamps\\OP07 96 640 M0
SYMATTR InstName U2
SYMBOL diode 704 736 R270
WINDOW 0 32 32 VTop 2
WINDOW 3 0 32 VBottom 2
SYMATTR InstName D1
SYMBOL diode 240 704 R90
WINDOW 0 0 32 VBottom 2
WINDOW 3 32 32 VTop 2
SYMATTR InstName D2
SYMBOL res 1056 688 R90
WINDOW 0 0 56 VBottom 2
WINDOW 3 32 56 VTop 2
SYMATTR InstName R16
SYMATTR Value 10k
SYMBOL res -16 688 R90
WINDOW 0 0 56 VBottom 2
WINDOW 3 32 56 VTop 2
SYMATTR InstName R18
SYMATTR Value 10k
TEXT -456 184 Left 2 !.tran 15
RECTANGLE Normal 2144 576 288 -1072 2
