Version 4
SHEET 1 5664 680
WIRE 64 64 64 48
WIRE 400 64 400 48
WIRE 64 160 64 144
WIRE 400 160 400 144
FLAG 64 48 VL0
IOPIN 64 48 Out
FLAG 64 160 0
FLAG 400 48 VL1
IOPIN 400 48 Out
FLAG 400 160 0
SYMBOL voltage 64 48 R0
WINDOW 123 0 0 Left 2
WINDOW 39 0 0 Left 2
WINDOW 3 -16 156 Left 2
SYMATTR InstName V0
SYMATTR Value PWL( 0.000 0 0.015 0 0.025 3 0.725 3 0.735 0 1.570 0 1.845 0 1.855 0 2.708 0 2.718 0 3.420 0 3.429 0 3.439 3 4.147 3 4.157 0 4.600 0 4.857 0 4.867 0 5.735 0 5.745 0 6.420 0 6.428 0 6.438 3 7.144 3 7.154 0 7.960 0 8.245 0 8.255 0 9.107 0 9.117 0 9.870 0 9.880 0)
SYMBOL voltage 400 48 R0
WINDOW 123 0 0 Left 2
WINDOW 39 0 0 Left 2
WINDOW 3 -22 183 Left 2
SYMATTR Value PWL( 0.000 0 0.015 0 0.025 0 0.725 0 0.735 0 1.570 0 1.845 0 1.855 3 2.708 3 2.718 0 3.420 0 3.429 0 3.439 0 4.147 0 4.157 0 4.600 0 4.857 0 4.867 3 5.735 3 5.745 0 6.420 0 6.428 0 6.438 0 7.144 0 7.154 0 7.960 0 8.245 0 8.255 3 9.107 3 9.117 0 9.870 0 9.880 0)
SYMATTR InstName V1
