Version 4
SHEET 1 2388 1012
WIRE -640 400 -640 384
WIRE 336 416 176 416
WIRE 432 416 416 416
WIRE 576 416 432 416
WIRE 320 544 160 544
WIRE 160 624 160 544
WIRE 208 624 160 624
WIRE 320 640 320 544
WIRE 320 640 272 640
WIRE 432 640 384 640
WIRE 560 640 512 640
WIRE 656 640 560 640
WIRE 208 656 128 656
WIRE 560 656 560 640
FLAG -640 640 0
FLAG 160 944 0
FLAG 272 944 0
FLAG 160 864 V+
FLAG 272 864 V-
FLAG 656 640 Vmem
FLAG 656 720 0
FLAG -640 384 Vpre
FLAG 560 720 0
FLAG 240 672 V-
FLAG 240 608 V+
FLAG 128 736 0
FLAG 176 416 Vpre
FLAG 432 416 Vpost
FLAG 576 416 0
FLAG -1216 592 0
SYMBOL voltage -640 464 R0
WINDOW 123 0 0 Left 2
WINDOW 39 0 0 Left 2
SYMATTR InstName V1
SYMATTR Value PULSE(0 5 0.5 1e-5 1e-5 1e-5 3.01e-5 16611)
SYMBOL voltage 160 848 R0
WINDOW 123 0 0 Left 2
WINDOW 39 0 0 Left 2
SYMATTR InstName V2
SYMATTR Value 20
SYMBOL voltage 272 848 R0
WINDOW 123 0 0 Left 2
WINDOW 39 0 0 Left 2
SYMATTR InstName V3
SYMATTR Value -20
SYMBOL res 528 624 R90
WINDOW 0 0 56 VBottom 2
WINDOW 3 32 56 VTop 2
SYMATTR InstName R6
SYMATTR Value 20Meg
SYMBOL cap 544 656 R0
WINDOW 3 -13 12 Left 2
SYMATTR Value .01n
SYMATTR InstName C2
SYMATTR SpiceLine V=16 Irms=7.41 Rser=0.000 Lser=0
SYMBOL res 672 736 R180
WINDOW 0 -38 58 Left 2
WINDOW 3 -110 34 Left 2
SYMATTR InstName R7
SYMATTR Value 1000000Meg
SYMBOL diode 320 656 R270
WINDOW 0 32 32 VTop 2
WINDOW 3 0 32 VBottom 2
SYMATTR InstName D2
SYMBOL Opamps\\OP07 240 576 R0
SYMATTR InstName U3
SYMBOL bv 128 640 R0
WINDOW 0 -52 16 Left 2
WINDOW 3 -192 88 Left 2
SYMATTR InstName B4
SYMATTR Value V=v(Vpre)-v(Vpost)
SYMBOL res 432 400 R90
WINDOW 0 0 56 VBottom 2
WINDOW 3 -69 27 VTop 2
SYMATTR InstName R8
SYMATTR Value R=abs(1-(v(Vmem))/(4.84))*114403400+4000000
SYMBOL voltage -640 384 R0
WINDOW 123 0 0 Left 2
WINDOW 39 0 0 Left 2
SYMATTR InstName V6
SYMATTR Value PULSE(0 1 1 0.001u 0.001u 1 2 1)
SYMBOL voltage -640 544 R0
WINDOW 123 0 0 Left 2
WINDOW 39 0 0 Left 2
SYMATTR InstName V7
SYMATTR Value PULSE(0 1 0 0.001u 0.001u 0.5 0.6 1)
SYMBOL voltage -1216 496 R0
WINDOW 123 0 0 Left 2
WINDOW 39 0 0 Left 2
SYMATTR InstName V5
SYMATTR Value PULSE(0 5 0.5 1e-3 1e-3 1e-3 3.01e-3 166)
TEXT 128 968 Left 2 !.tran 33
