Version 4
SHEET 1 5076 1812
WIRE 112 -1136 64 -1136
WIRE 192 -1136 176 -1136
WIRE 224 -1136 192 -1136
WIRE 112 -928 64 -928
WIRE 192 -928 176 -928
WIRE 224 -928 192 -928
WIRE 112 -688 64 -688
WIRE 192 -688 176 -688
WIRE 224 -688 192 -688
WIRE 112 -496 64 -496
WIRE 192 -496 176 -496
WIRE 224 -496 192 -496
WIRE -208 -432 -352 -432
WIRE -64 -432 -208 -432
WIRE -352 -336 -352 -432
WIRE 112 -272 64 -272
WIRE 192 -272 176 -272
WIRE 224 -272 192 -272
WIRE 112 -48 64 -48
WIRE 192 -48 176 -48
WIRE 224 -48 192 -48
WIRE 112 176 64 176
WIRE 192 176 176 176
WIRE 224 176 192 176
WIRE 112 368 64 368
WIRE 192 368 176 368
WIRE 224 368 192 368
FLAG -352 -256 0
FLAG -208 -432 audioin
FLAG 304 -1136 0
FLAG 304 -928 0
FLAG 304 -688 0
FLAG 304 -496 0
FLAG 304 -272 0
FLAG 304 -48 0
FLAG 304 176 0
FLAG 304 368 0
FLAG 192 -1136 F1
FLAG 192 -928 F2
FLAG 192 -688 F3
FLAG 192 -496 F4
FLAG 192 -272 F5
FLAG 192 -48 F6
FLAG 192 176 F7
FLAG 192 368 F8
SYMBOL voltage -352 -352 R0
SYMATTR InstName AudioTrain
SYMATTR Value wavefile=V_train.wav
SYMBOL FilterBank -64 464 R0
SYMATTR InstName X12
SYMBOL res 320 -1152 R90
WINDOW 0 0 56 VBottom 2
WINDOW 3 32 56 VTop 2
SYMATTR InstName R1
SYMATTR Value 1G
SYMBOL diode 112 -1120 R270
WINDOW 0 32 32 VTop 2
WINDOW 3 0 32 VBottom 2
SYMATTR InstName D1
SYMBOL res 320 -944 R90
WINDOW 0 0 56 VBottom 2
WINDOW 3 32 56 VTop 2
SYMATTR InstName R2
SYMATTR Value 1G
SYMBOL diode 112 -912 R270
WINDOW 0 32 32 VTop 2
WINDOW 3 0 32 VBottom 2
SYMATTR InstName D2
SYMBOL res 320 -704 R90
WINDOW 0 0 56 VBottom 2
WINDOW 3 32 56 VTop 2
SYMATTR InstName R3
SYMATTR Value 1G
SYMBOL diode 112 -672 R270
WINDOW 0 32 32 VTop 2
WINDOW 3 0 32 VBottom 2
SYMATTR InstName D3
SYMBOL res 320 -512 R90
WINDOW 0 0 56 VBottom 2
WINDOW 3 32 56 VTop 2
SYMATTR InstName R4
SYMATTR Value 1G
SYMBOL diode 112 -480 R270
WINDOW 0 32 32 VTop 2
WINDOW 3 0 32 VBottom 2
SYMATTR InstName D4
SYMBOL res 320 -288 R90
WINDOW 0 0 56 VBottom 2
WINDOW 3 32 56 VTop 2
SYMATTR InstName R5
SYMATTR Value 1G
SYMBOL diode 112 -256 R270
WINDOW 0 32 32 VTop 2
WINDOW 3 0 32 VBottom 2
SYMATTR InstName D5
SYMBOL res 320 -64 R90
WINDOW 0 0 56 VBottom 2
WINDOW 3 32 56 VTop 2
SYMATTR InstName R6
SYMATTR Value 1G
SYMBOL diode 112 -32 R270
WINDOW 0 32 32 VTop 2
WINDOW 3 0 32 VBottom 2
SYMATTR InstName D6
SYMBOL res 320 160 R90
WINDOW 0 0 56 VBottom 2
WINDOW 3 32 56 VTop 2
SYMATTR InstName R7
SYMATTR Value 1G
SYMBOL diode 112 192 R270
WINDOW 0 32 32 VTop 2
WINDOW 3 0 32 VBottom 2
SYMATTR InstName D7
SYMBOL res 320 352 R90
WINDOW 0 0 56 VBottom 2
WINDOW 3 32 56 VTop 2
SYMATTR InstName R8
SYMATTR Value 1G
SYMBOL diode 112 384 R270
WINDOW 0 32 32 VTop 2
WINDOW 3 0 32 VBottom 2
SYMATTR InstName D8
TEXT -264 72 Left 2 !.tran 16.5
TEXT -640 -864 Left 2 !.save audioin\n.save f1\n.save f2\n.save f3\n.save f4\n.save f5\n.save f5\n.save f6\n.save f7\n.save f8
TEXT -536 -1008 Left 2 !.plot V(audioin)
