Version 4
SHEET 1 5076 1460
WIRE 96 -1024 -96 -1024
WIRE 320 -1024 160 -1024
WIRE 640 -1024 320 -1024
WIRE 96 -816 -96 -816
WIRE 320 -816 160 -816
WIRE 640 -816 320 -816
WIRE 400 -736 400 -944
WIRE 720 -736 720 -944
WIRE 96 -576 -96 -576
WIRE 320 -576 160 -576
WIRE 640 -576 320 -576
WIRE 400 -496 400 -736
WIRE 720 -496 720 -736
WIRE 96 -384 -96 -384
WIRE 320 -384 160 -384
WIRE 640 -384 320 -384
WIRE -224 -320 -544 -320
WIRE 400 -304 400 -496
WIRE 720 -304 720 -496
WIRE -544 -224 -544 -320
WIRE 96 -160 -96 -160
WIRE 320 -160 160 -160
WIRE 640 -160 320 -160
WIRE -544 -80 -544 -144
WIRE 400 -80 400 -304
WIRE 720 -80 720 -304
WIRE 96 64 -96 64
WIRE 320 64 160 64
WIRE 640 64 320 64
WIRE -544 80 -544 0
WIRE 400 144 400 -80
WIRE 720 144 720 -80
WIRE 96 288 -96 288
WIRE 320 288 160 288
WIRE 640 288 320 288
WIRE 400 368 400 144
WIRE 720 368 720 144
WIRE 96 480 -96 480
WIRE 320 480 160 480
WIRE 640 480 320 480
WIRE 400 560 400 368
WIRE 720 560 720 368
WIRE 400 608 400 560
WIRE 720 608 720 560
WIRE 368 752 368 736
WIRE 368 752 320 752
WIRE 432 752 432 736
WIRE 464 752 432 752
WIRE 688 752 688 736
WIRE 688 752 656 752
WIRE 752 752 752 736
WIRE 800 752 752 752
WIRE 16 768 0 768
WIRE 112 768 96 768
WIRE 192 768 176 768
WIRE 256 768 192 768
WIRE 928 768 864 768
WIRE 944 768 928 768
WIRE 1024 768 1008 768
WIRE 1120 768 1104 768
WIRE 336 784 320 784
WIRE 800 784 784 784
WIRE 0 800 0 768
WIRE 0 800 -48 800
WIRE 48 800 0 800
WIRE 1120 800 1120 768
WIRE 1120 800 1072 800
WIRE 1168 800 1120 800
WIRE 496 848 496 832
WIRE 624 848 624 832
WIRE 0 880 -48 880
WIRE 48 880 48 864
WIRE 48 880 0 880
WIRE 192 880 192 768
WIRE 256 880 192 880
WIRE 336 880 336 784
WIRE 784 880 784 784
WIRE 928 880 928 768
WIRE 928 880 864 880
WIRE 1072 880 1072 864
WIRE 1120 880 1072 880
WIRE 1168 880 1120 880
WIRE 0 912 0 880
WIRE 1120 912 1120 880
FLAG -544 80 0
FLAG 912 624 0
FLAG 1024 624 0
FLAG 1024 544 V+
FLAG 912 544 V-
FLAG 0 912 0
FLAG 288 800 V+
FLAG 288 736 V-
FLAG 496 832 Label
FLAG 336 960 0
FLAG 624 832 Label2
FLAG 1120 912 0
FLAG 832 800 V+
FLAG 832 736 V-
FLAG 784 960 0
FLAG 0 768 predict
FLAG 1120 768 predict2
FLAG 480 656 Label
FLAG 640 688 Label
FLAG 480 688 Label2
FLAG 640 656 Label2
SYMBOL Synapse 400 -736 R180
SYMATTR InstName X2
SYMBOL AHP 96 -816 R0
SYMATTR InstName X3
SYMATTR SpiceLine Rinhibition = 1Meg
SYMBOL Synapse 400 368 R180
SYMATTR InstName X17
SYMBOL AHP 96 288 R0
SYMATTR InstName X18
SYMATTR SpiceLine Rinhibition = 1Meg
SYMBOL Synapse 720 -736 R180
SYMATTR InstName X20
SYMBOL Synapse 720 368 R180
SYMATTR InstName X27
SYMBOL OutputLabels 464 944 R0
SYMATTR InstName X11
SYMBOL voltage -544 -240 R0
SYMATTR InstName AudioTrain
SYMATTR Value wavefile=V_train.wav
SYMBOL voltage -544 -96 R0
SYMATTR InstName AudioTest
SYMATTR Value wavefile=V_test.wav
SYMBOL FilterBank -224 576 R0
SYMATTR InstName X12
SYMBOL voltage 1024 528 R0
WINDOW 123 0 0 Left 2
WINDOW 39 0 0 Left 2
SYMATTR InstName V1
SYMATTR Value 12
SYMBOL voltage 912 528 R0
WINDOW 123 0 0 Left 2
WINDOW 39 0 0 Left 2
SYMATTR InstName V2
SYMATTR Value -12
SYMBOL res -64 784 R0
SYMATTR InstName R14
SYMATTR Value 50k
SYMBOL cap 32 800 R0
SYMATTR InstName C1
SYMATTR Value 5µ
SYMBOL Opamps\\OP07 288 832 R180
SYMATTR InstName U2
SYMBOL diode 176 752 R90
WINDOW 0 0 32 VBottom 2
WINDOW 3 32 32 VTop 2
SYMATTR InstName D2
SYMBOL res 112 752 R90
WINDOW 0 0 56 VBottom 2
WINDOW 3 32 56 VTop 2
SYMATTR InstName R18
SYMATTR Value 10k
SYMBOL Synapse 400 -944 R180
SYMATTR InstName X1
SYMBOL AHP 96 -1024 R0
SYMATTR InstName X4
SYMATTR SpiceLine Rinhibition = 1Meg
SYMBOL Synapse 720 -944 R180
SYMATTR InstName X5
SYMBOL Synapse 400 -496 R180
SYMATTR InstName X6
SYMBOL AHP 96 -576 R0
SYMATTR InstName X7
SYMATTR SpiceLine Rinhibition = 1Meg
SYMBOL Synapse 720 -496 R180
SYMATTR InstName X9
SYMBOL Synapse 400 -304 R180
SYMATTR InstName X10
SYMBOL AHP 96 -384 R0
SYMATTR InstName X13
SYMATTR SpiceLine Rinhibition = 1Meg
SYMBOL Synapse 720 -304 R180
SYMATTR InstName X14
SYMBOL Synapse 400 -80 R180
SYMATTR InstName X15
SYMBOL AHP 96 -160 R0
SYMATTR InstName X16
SYMATTR SpiceLine Rinhibition = 1Meg
SYMBOL Synapse 720 -80 R180
SYMATTR InstName X19
SYMBOL Synapse 400 144 R180
SYMATTR InstName X21
SYMBOL AHP 96 64 R0
SYMATTR InstName X22
SYMATTR SpiceLine Rinhibition = 1Meg
SYMBOL Synapse 720 144 R180
SYMATTR InstName X23
SYMBOL Synapse 400 560 R180
SYMATTR InstName X24
SYMBOL AHP 96 480 R0
SYMATTR InstName X25
SYMATTR SpiceLine Rinhibition = 1Meg
SYMBOL Synapse 720 560 R180
SYMATTR InstName X26
SYMBOL res 320 864 R0
SYMATTR InstName R36
SYMATTR Value 1k
SYMBOL res 352 864 R90
WINDOW 0 0 56 VBottom 2
WINDOW 3 32 56 VTop 2
SYMATTR InstName R37
SYMATTR Value 100k
SYMBOL res 1184 784 M0
SYMATTR InstName R15
SYMATTR Value 50k
SYMBOL cap 1088 800 M0
SYMATTR InstName C2
SYMATTR Value 5µ
SYMBOL Opamps\\OP07 832 832 M180
SYMATTR InstName U1
SYMBOL diode 944 752 M90
WINDOW 0 0 32 VBottom 2
WINDOW 3 32 32 VTop 2
SYMATTR InstName D1
SYMBOL res 1008 752 M90
WINDOW 0 0 56 VBottom 2
WINDOW 3 32 56 VTop 2
SYMATTR InstName R16
SYMATTR Value 10k
SYMBOL res 800 864 M0
SYMATTR InstName R55
SYMATTR Value 1k
SYMBOL res 768 864 M90
WINDOW 0 0 56 VBottom 2
WINDOW 3 32 56 VTop 2
SYMATTR InstName R56
SYMATTR Value 100k
SYMBOL BiDirectionlAmp 720 672 R0
SYMATTR InstName X8
SYMBOL AHP 432 752 M0
SYMATTR InstName X29
SYMATTR SpiceLine Rinhibition = 1Meg
SYMBOL AHP 688 752 R0
SYMATTR InstName X30
SYMATTR SpiceLine Rinhibition = 1Meg
SYMBOL BiDirectionlAmp 400 672 M0
SYMATTR InstName X28
TEXT -456 184 Left 2 !.tran 16.5
