Version 4
SHEET 1 5076 1812
WIRE 80 -1136 64 -1136
WIRE 112 -1136 80 -1136
WIRE 192 -1136 176 -1136
WIRE 272 -1136 192 -1136
WIRE 96 -928 64 -928
WIRE 112 -928 96 -928
WIRE 208 -928 176 -928
WIRE 272 -928 208 -928
WIRE 80 -688 64 -688
WIRE 112 -688 80 -688
WIRE 192 -688 176 -688
WIRE 272 -688 192 -688
WIRE 96 -496 64 -496
WIRE 112 -496 96 -496
WIRE 208 -496 176 -496
WIRE 272 -496 208 -496
WIRE -208 -432 -352 -432
WIRE -64 -432 -208 -432
WIRE -352 -336 -352 -432
WIRE 96 -272 64 -272
WIRE 112 -272 96 -272
WIRE 208 -272 176 -272
WIRE 272 -272 208 -272
WIRE 80 -48 64 -48
WIRE 112 -48 80 -48
WIRE 192 -48 176 -48
WIRE 272 -48 192 -48
WIRE 80 176 64 176
WIRE 112 176 80 176
WIRE 192 176 176 176
WIRE 272 176 192 176
WIRE 80 368 64 368
WIRE 112 368 80 368
WIRE 192 368 176 368
WIRE 272 368 192 368
FLAG -352 -256 0
FLAG -208 -432 audioin
FLAG 352 -1136 0
FLAG 352 -928 0
FLAG 352 -688 0
FLAG 352 -496 0
FLAG 352 -272 0
FLAG 352 -48 0
FLAG 352 176 0
FLAG 352 368 0
FLAG 80 -1136 F1
FLAG 96 -928 F2
FLAG 80 -688 F3
FLAG 96 -496 F4
FLAG 96 -272 F5
FLAG 80 -48 F6
FLAG 80 176 F7
FLAG 80 368 F8
FLAG 144 384 5V+
FLAG 144 192 5V+
FLAG 144 -32 5V+
FLAG 144 -256 5V+
FLAG 144 -480 5V+
FLAG 144 -672 5V+
FLAG 144 -912 5V+
FLAG 144 -1120 5V+
FLAG 192 -1136 N1
FLAG 208 -928 N2
FLAG 192 -688 N3
FLAG 208 -496 N4
FLAG 208 -272 N5
FLAG 192 -48 N6
FLAG 192 176 N7
FLAG 192 368 N8
FLAG -208 -64 0
FLAG -208 -144 5V+
SYMBOL voltage -352 -352 R0
SYMATTR InstName AudioTrain
SYMATTR Value wavefile=V_train.wav
SYMBOL FilterBank -64 464 R0
SYMATTR InstName X12
SYMBOL res 368 -1152 R90
WINDOW 0 0 56 VBottom 2
WINDOW 3 32 56 VTop 2
SYMATTR InstName R1
SYMATTR Value 1G
SYMBOL res 368 -944 R90
WINDOW 0 0 56 VBottom 2
WINDOW 3 32 56 VTop 2
SYMATTR InstName R2
SYMATTR Value 1G
SYMBOL res 368 -704 R90
WINDOW 0 0 56 VBottom 2
WINDOW 3 32 56 VTop 2
SYMATTR InstName R3
SYMATTR Value 1G
SYMBOL res 368 -512 R90
WINDOW 0 0 56 VBottom 2
WINDOW 3 32 56 VTop 2
SYMATTR InstName R4
SYMATTR Value 1G
SYMBOL res 368 -288 R90
WINDOW 0 0 56 VBottom 2
WINDOW 3 32 56 VTop 2
SYMATTR InstName R5
SYMATTR Value 1G
SYMBOL res 368 -64 R90
WINDOW 0 0 56 VBottom 2
WINDOW 3 32 56 VTop 2
SYMATTR InstName R6
SYMATTR Value 1G
SYMBOL res 368 160 R90
WINDOW 0 0 56 VBottom 2
WINDOW 3 32 56 VTop 2
SYMATTR InstName R7
SYMATTR Value 1G
SYMBOL res 368 352 R90
WINDOW 0 0 56 VBottom 2
WINDOW 3 32 56 VTop 2
SYMATTR InstName R8
SYMATTR Value 1G
SYMBOL AHP 112 -928 R0
SYMATTR InstName X1
SYMATTR SpiceLine Rinhibition = 1Meg
SYMBOL AHP 112 176 R0
SYMATTR InstName X2
SYMATTR SpiceLine Rinhibition = 1Meg
SYMBOL AHP 112 -1136 R0
SYMATTR InstName X3
SYMATTR SpiceLine Rinhibition = 1Meg
SYMBOL AHP 112 -688 R0
SYMATTR InstName X4
SYMATTR SpiceLine Rinhibition = 1Meg
SYMBOL AHP 112 -496 R0
SYMATTR InstName X5
SYMATTR SpiceLine Rinhibition = 1Meg
SYMBOL AHP 112 -272 R0
SYMATTR InstName X6
SYMATTR SpiceLine Rinhibition = 1Meg
SYMBOL AHP 112 -48 R0
SYMATTR InstName X7
SYMATTR SpiceLine Rinhibition = 1Meg
SYMBOL AHP 112 368 R0
SYMATTR InstName X8
SYMATTR SpiceLine Rinhibition = 1Meg
SYMBOL voltage -208 -160 R0
WINDOW 123 0 0 Left 2
WINDOW 39 0 0 Left 2
SYMATTR InstName V1
SYMATTR Value 5
TEXT -264 72 Left 2 !.tran 10
TEXT -640 -864 Left 2 !.save audioin\n.save f1\n.save f2\n.save f3\n.save f4\n.save f5\n.save f6\n.save f7\n.save f8
TEXT -424 -856 Left 2 !.save n1\n.save n2\n.save n3\n.save n4\n.save n5\n.save n6\n.save n7\n.save n8
